no name_1_009
     RDKit          3D

  0  0  0  0  0  0  0  0  0  0999 V3000
M  V30 BEGIN CTAB
M  V30 COUNTS 35 36 0 0 1
M  V30 BEGIN ATOM
M  V30 1 S -2.715200 1.031100 9.841800 0
M  V30 2 O -3.992800 1.439700 10.365900 0
M  V30 3 O -1.667300 1.756200 10.512300 0
M  V30 4 N -2.657500 1.346500 8.243600 0 CHG=-1
M  V30 5 C -2.491000 -0.743900 10.115000 0
M  V30 6 C -2.967300 -1.105500 11.511000 0 CFG=1
M  V30 7 N -2.618200 -2.467700 11.969200 0
M  V30 8 C -3.199000 -3.655800 11.904500 0
M  V30 9 O -4.297300 -3.777100 11.353000 0
M  V30 10 C -2.513900 -4.870500 12.509000 0
M  V30 11 O -2.006400 -4.537700 13.792800 0
M  V30 12 C -2.877300 -4.334900 14.850600 0
M  V30 13 C -4.246000 -4.467400 14.642500 0
M  V30 14 C -5.112200 -4.261400 15.711500 0
M  V30 15 O -6.477200 -4.390800 15.514500 0
M  V30 16 C -4.629200 -3.927300 16.972400 0
M  V30 17 C -3.256400 -3.800200 17.155800 0
M  V30 18 C -2.370600 -4.001600 16.102400 0
M  V30 19 C -1.375000 -1.947500 12.544500 0
M  V30 20 C -2.086300 -0.603800 12.628500 0
M  V30 21 H -2.424900 2.308700 8.101900 0
M  V30 22 H -1.454800 -0.991800 10.016500 0
M  V30 23 H -3.059000 -1.290700 9.391600 0
M  V30 24 H -4.000000 -0.872100 11.665900 0
M  V30 25 H -1.708000 -5.177600 11.875500 0
M  V30 26 H -3.219800 -5.669300 12.600700 0
M  V30 27 H -4.626700 -4.723500 13.675900 0
M  V30 28 H -7.111900 -4.178800 16.257500 0
M  V30 29 H -5.303200 -3.770500 17.788500 0
M  V30 30 H -2.875700 -3.543400 18.122300 0
M  V30 31 H -1.315900 -3.901700 16.252700 0
M  V30 32 H -0.531100 -1.969700 11.887000 0
M  V30 33 H -1.103300 -2.372600 13.488000 0
M  V30 34 H -2.592700 -0.419600 13.552800 0
M  V30 35 H -1.480800 0.242400 12.378800 0
M  V30 END ATOM
M  V30 BEGIN BOND
M  V30 1 2 2 1
M  V30 2 2 3 1
M  V30 3 1 4 1
M  V30 4 1 5 1
M  V30 5 1 6 5
M  V30 6 1 7 6
M  V30 7 1 8 7
M  V30 8 2 9 8
M  V30 9 1 10 8
M  V30 10 1 11 10
M  V30 11 1 12 11
M  V30 12 2 13 12
M  V30 13 1 14 13
M  V30 14 1 15 14
M  V30 15 2 16 14
M  V30 16 1 17 16
M  V30 17 1 18 12
M  V30 18 2 18 17
M  V30 19 1 19 7
M  V30 20 1 20 6
M  V30 21 1 20 19
M  V30 22 1 21 4
M  V30 23 1 22 5
M  V30 24 1 23 5
M  V30 25 1 6 24 CFG=1
M  V30 26 1 25 10
M  V30 27 1 26 10
M  V30 28 1 27 13
M  V30 29 1 28 15
M  V30 30 1 29 16
M  V30 31 1 30 17
M  V30 32 1 31 18
M  V30 33 1 32 19
M  V30 34 1 33 19
M  V30 35 1 34 20
M  V30 36 1 35 20
M  V30 END BOND
M  V30 END CTAB
M  END
>  <i_m_Source_File_Index>  (1) 
1

>  <b_m_subgroup_collapsed>  (1) 
0

>  <s_m_Source_File>  (1) 
1XTJ_3000_ligands_analog_library_database_MW300_top50.sdf

>  <s_m_Source_Path>  (1) 
C:\Users\pham.congdat\OneDrive - Indivumed\Desktop\Work\Research\DDX39B

>  <s_m_entry_id>  (1) 
198644

>  <s_m_entry_name>  (1) 
1XTJ_3000_ligands_analog_library_database_MW300_top50.1

>  <s_m_subgroup_title>  (1) 
1XTJ_3000_ligands_analog_library_database_MW300_top50

>  <s_m_subgroupid>  (1) 
1XTJ_3000_ligands_analog_library_database_MW300_top50

>  <BIOSOLVEIT.HYDE_ATOM_SCORES [kJ/mol]>  (1) 
# Atom-ID; Total; Rec-Desolv; Rec-IA; Lig-Desolv; Lig-IA
1;-0.0707;0.0000;0.0000;-0.0707;0.0000
2;-5.2931;23.8706;-26.9450;2.8383;-5.0570
3;-1.9619;6.6819;-7.9569;3.0606;-3.7474
4;-11.4928;9.2908;-19.9950;11.3997;-12.1882
5;-2.9005;-1.3899;0.0000;-1.5106;0.0000
6;-2.8047;-1.8362;0.0000;-0.9685;0.0000
7;0.0000;0.0000;0.0000;0.0000;0.0000
8;-0.2867;0.0000;0.0000;-0.2867;0.0000
9;-2.7802;5.5869;-8.3313;10.2442;-10.2799
10;0.1964;1.1951;0.0000;-0.9987;0.0000
11;0.0000;0.0000;0.0000;0.0000;0.0000
12;-1.4597;-1.2019;0.0000;-0.2578;0.0000
13;-2.5295;-1.1657;0.0000;-1.3638;0.0000
14;-0.3854;0.0000;0.0000;-0.3854;0.0000
15;-3.5998;6.3033;-8.4236;3.6538;-5.1332
16;-0.3944;-0.0572;0.0000;-0.3372;0.0000
17;-0.7373;-0.4280;0.0000;-0.3093;0.0000
18;-0.3163;0.0000;0.0000;-0.3163;0.0000
19;0.0000;0.0000;0.0000;0.0000;0.0000
20;-1.0083;-0.0319;0.0000;-0.9765;0.0000

>  <BIOSOLVEIT.HYDE_ESTIMATED_AFFINITY_LOWER_BOUNDARY [nM]>  (1) 
16.762868

>  <BIOSOLVEIT.HYDE_ESTIMATED_AFFINITY_UPPER_BOUNDARY [nM]>  (1) 
1665.490046

>  <BIOSOLVEIT.HYDE_LIGAND_EFFICIENCY>  (1) 
0.474394

>  <BIOSOLVEIT.HYDE_LIGAND_LIPOPHILIC_EFFICIENCY>  (1) 
5.372555

>  <BIOSOLVEIT.INTER_CLASH range: 0=green, 1=yellow, 2=red>  (1) 
0

>  <BIOSOLVEIT.INTRA_CLASH range: 0=green, 1=yellow, 2=red>  (1) 
0

>  <BIOSOLVEIT.LOGP>  (1) 
1.4045

>  <BIOSOLVEIT.MOLECULAR_WEIGHT>  (1) 
299.325

>  <BIOSOLVEIT.MOLECULE_CHECKSUM>  (1) 
LTM4LjY4MzU7MC40NzQzOTQ=

>  <BIOSOLVEIT.OPTIBRIUM.2C9 pKi>  (1) 
4.22145

>  <BIOSOLVEIT.OPTIBRIUM.2D6 affinity category>  (1) 
low

>  <BIOSOLVEIT.OPTIBRIUM.BBB category>  (1) 
-

>  <BIOSOLVEIT.OPTIBRIUM.BBB log([brain]:[blood])>  (1) 
-1.03072

>  <BIOSOLVEIT.OPTIBRIUM.HIA category>  (1) 
+

>  <BIOSOLVEIT.OPTIBRIUM.P-gp category>  (1) 
no

>  <BIOSOLVEIT.OPTIBRIUM.PPB90 category>  (1) 
low

>  <BIOSOLVEIT.OPTIBRIUM.hERG pIC50>  (1) 
4.64728

>  <BIOSOLVEIT.OPTIBRIUM.logD>  (1) 
0.0208404

>  <BIOSOLVEIT.OPTIBRIUM.logP>  (1) 
0.0208404

>  <BIOSOLVEIT.OPTIBRIUM.logS>  (1) 
4.41406

>  <BIOSOLVEIT.OPTIBRIUM.logS @ pH7.4>  (1) 
4.41406

>  <BIOSOLVEIT.TORSION_QUALITY range: 0=green/not rotatable, 1=yellow, 2=red>  (1) 
0

>  <BIOSOLVEIT.TPSA>  (1) 
107.71

>  <cleaned_smiles (canonical SMILES)>  (1) 
NS(=O)(=O)CC1CCN1C(=O)COc1cc(O)ccc1

$$$$
no name_1_001
     RDKit          3D

  0  0  0  0  0  0  0  0  0  0999 V3000
M  V30 BEGIN CTAB
M  V30 COUNTS 34 35 0 0 1
M  V30 BEGIN ATOM
M  V30 1 S 4.474100 -0.961600 9.048800 0
M  V30 2 O 3.151800 -1.531800 9.050800 0
M  V30 3 O 5.206000 -1.450700 7.909300 0
M  V30 4 N 4.365100 0.662900 8.968300 0
M  V30 5 C 3.512200 1.075300 7.851900 0
M  V30 6 C 3.011700 2.176000 8.758600 0
M  V30 7 C 1.523400 2.406000 8.566800 0
M  V30 8 N 0.777800 1.252000 9.089800 0
M  V30 9 C -0.165200 1.431300 10.000100 0
M  V30 10 O -0.419100 2.568000 10.410600 0
M  V30 11 C -0.917300 0.267400 10.527500 0
M  V30 12 C -2.250700 0.044500 10.390300 0
M  V30 13 N -2.557400 -1.145400 11.024100 0
M  V30 14 C -1.394600 -1.671900 11.563500 0
M  V30 15 C -0.364900 -0.825300 11.275600 0
M  V30 16 C -3.215000 0.926500 9.682000 0
M  V30 17 O -3.027400 1.221200 8.478700 0
M  V30 18 O -4.215600 1.375200 10.288300 0 CHG=-1
M  V30 19 C 3.309500 1.174100 9.841000 0
M  V30 20 C 5.336900 -1.433800 10.568100 0
M  V30 21 H 2.771700 0.358900 7.563300 0
M  V30 22 H 4.039400 1.412600 6.984000 0
M  V30 23 H 3.612400 3.061300 8.777400 0
M  V30 24 H 1.312300 2.524400 7.524600 0
M  V30 25 H 1.228300 3.289500 9.093100 0
M  V30 26 H 0.983300 0.331600 8.757400 0
M  V30 27 H -3.466700 -1.557200 11.083400 0
M  V30 28 H -1.317800 -2.587100 12.112500 0
M  V30 29 H 0.660300 -0.951900 11.554700 0
M  V30 30 H 3.654200 1.597300 10.761300 0
M  V30 31 H 2.518600 0.481700 10.041000 0
M  V30 32 H 6.319400 -1.010200 10.566800 0
M  V30 33 H 4.793000 -1.070300 11.414900 0
M  V30 34 H 5.408300 -2.500100 10.621000 0
M  V30 END ATOM
M  V30 BEGIN BOND
M  V30 1 2 2 1
M  V30 2 2 3 1
M  V30 3 1 4 1
M  V30 4 1 5 4
M  V30 5 1 6 5
M  V30 6 1 7 6
M  V30 7 1 8 7
M  V30 8 1 9 8
M  V30 9 2 10 9
M  V30 10 1 11 9
M  V30 11 2 12 11
M  V30 12 1 13 12
M  V30 13 1 14 13
M  V30 14 1 15 11
M  V30 15 2 15 14
M  V30 16 1 16 12
M  V30 17 2 17 16
M  V30 18 1 18 16
M  V30 19 1 19 4
M  V30 20 1 19 6
M  V30 21 1 20 1
M  V30 22 1 21 5
M  V30 23 1 22 5
M  V30 24 1 23 6
M  V30 25 1 24 7
M  V30 26 1 25 7
M  V30 27 1 26 8
M  V30 28 1 27 13
M  V30 29 1 28 14
M  V30 30 1 29 15
M  V30 31 1 30 19
M  V30 32 1 31 19
M  V30 33 1 32 20
M  V30 34 1 33 20
M  V30 35 1 34 20
M  V30 END BOND
M  V30 END CTAB
M  END
>  <i_m_Source_File_Index>  (2) 
2

>  <b_m_subgroup_collapsed>  (2) 
0

>  <s_m_Source_File>  (2) 
1XTJ_3000_ligands_analog_library_database_MW300_top50.sdf

>  <s_m_Source_Path>  (2) 
C:\Users\pham.congdat\OneDrive - Indivumed\Desktop\Work\Research\DDX39B

>  <s_m_entry_id>  (2) 
198645

>  <s_m_entry_name>  (2) 
1XTJ_3000_ligands_analog_library_database_MW300_top50.2

>  <s_m_subgroup_title>  (2) 
1XTJ_3000_ligands_analog_library_database_MW300_top50

>  <s_m_subgroupid>  (2) 
1XTJ_3000_ligands_analog_library_database_MW300_top50

>  <BIOSOLVEIT.HYDE_ATOM_SCORES [kJ/mol]>  (2) 
# Atom-ID; Total; Rec-Desolv; Rec-IA; Lig-Desolv; Lig-IA
1;-0.0330;0.0000;0.0000;-0.0330;0.0000
2;-0.1004;0.0000;0.0000;-0.1004;0.0000
3;-1.6692;-1.6400;0.0000;-0.0291;0.0000
4;0.0000;0.0000;0.0000;0.0000;0.0000
5;0.0000;0.0000;0.0000;0.0000;0.0000
6;0.0000;0.0000;0.0000;0.0000;0.0000
7;-0.1587;0.0000;0.0000;-0.1587;0.0000
8;-0.0600;0.0000;0.0000;-0.0600;0.0000
9;0.0000;0.0000;0.0000;0.0000;0.0000
10;-5.4490;14.2469;-17.7279;10.4322;-12.4002
11;-0.2148;0.0000;0.0000;-0.2148;0.0000
12;-0.5459;0.0000;0.0000;-0.5459;0.0000
13;5.4291;-1.4666;0.0000;6.8957;0.0000
14;-0.1270;0.2448;0.0000;-0.3717;0.0000
15;-0.0989;0.0000;0.0000;-0.0989;0.0000
16;-0.4222;0.0000;0.0000;-0.4222;0.0000
17;-11.9283;8.9453;-19.9979;4.2605;-5.1362
18;0.8949;23.8592;-20.6185;3.8176;-6.1634
19;0.0000;0.0000;0.0000;0.0000;0.0000
20;-0.0296;0.7028;0.0000;-0.7324;0.0000

>  <BIOSOLVEIT.HYDE_ESTIMATED_AFFINITY_LOWER_BOUNDARY [nM]>  (2) 
237921.866084

>  <BIOSOLVEIT.HYDE_ESTIMATED_AFFINITY_UPPER_BOUNDARY [nM]>  (2) 
23638944.100867

>  <BIOSOLVEIT.HYDE_LIGAND_EFFICIENCY>  (2) 
0.183748

>  <BIOSOLVEIT.HYDE_LIGAND_LIPOPHILIC_EFFICIENCY>  (2) 
3.974969

>  <BIOSOLVEIT.INTER_CLASH range: 0=green, 1=yellow, 2=red>  (2) 
0

>  <BIOSOLVEIT.INTRA_CLASH range: 0=green, 1=yellow, 2=red>  (2) 
0

>  <BIOSOLVEIT.LOGP>  (2) 
-1.35

>  <BIOSOLVEIT.MOLECULAR_WEIGHT>  (2) 
300.313

>  <BIOSOLVEIT.MOLECULE_CHECKSUM>  (2) 
LTE0Ljk4MzM7MC4xODM3NDg=

>  <BIOSOLVEIT.OPTIBRIUM.2C9 pKi>  (2) 
4.18889

>  <BIOSOLVEIT.OPTIBRIUM.2D6 affinity category>  (2) 
low

>  <BIOSOLVEIT.OPTIBRIUM.BBB category>  (2) 
-

>  <BIOSOLVEIT.OPTIBRIUM.BBB log([brain]:[blood])>  (2) 
-0.984234

>  <BIOSOLVEIT.OPTIBRIUM.HIA category>  (2) 
-

>  <BIOSOLVEIT.OPTIBRIUM.P-gp category>  (2) 
yes

>  <BIOSOLVEIT.OPTIBRIUM.PPB90 category>  (2) 
low

>  <BIOSOLVEIT.OPTIBRIUM.hERG pIC50>  (2) 
2.67053

>  <BIOSOLVEIT.OPTIBRIUM.logD>  (2) 
-2.53208

>  <BIOSOLVEIT.OPTIBRIUM.logP>  (2) 
0.0685517

>  <BIOSOLVEIT.OPTIBRIUM.logS>  (2) 
3.73677

>  <BIOSOLVEIT.OPTIBRIUM.logS @ pH7.4>  (2) 
4.17502

>  <BIOSOLVEIT.TORSION_QUALITY range: 0=green/not rotatable, 1=yellow, 2=red>  (2) 
1

>  <BIOSOLVEIT.TPSA>  (2) 
122.4

>  <cleaned_smiles (canonical SMILES)>  (2) 
CS(=O)(=O)N1CC(C1)CNC(=O)c1cc[nH]c1C(O)=O

$$$$
no name_1_006
     RDKit          3D

  0  0  0  0  0  0  0  0  0  0999 V3000
M  V30 BEGIN CTAB
M  V30 COUNTS 36 37 0 0 1
M  V30 BEGIN ATOM
M  V30 1 S -2.925700 0.891400 9.670900 0
M  V30 2 O -3.175900 0.865400 8.253000 0
M  V30 3 O -4.122300 1.297000 10.361800 0
M  V30 4 N -1.727800 1.949100 9.992000 0
M  V30 5 C -2.437800 -0.760100 10.227700 0
M  V30 6 C -2.731500 -0.901700 11.719500 0 CFG=1
M  V30 7 N -2.508200 -2.256600 12.202600 0
M  V30 8 C -3.081100 -3.422700 11.950200 0
M  V30 9 O -4.017000 -3.490100 11.147200 0
M  V30 10 C -2.587200 -4.679200 12.648800 0
M  V30 11 O -2.113400 -4.345000 13.945000 0
M  V30 12 C -3.004000 -4.231400 14.999800 0
M  V30 13 C -4.367100 -4.367200 14.759600 0
M  V30 14 C -5.253100 -4.251200 15.826000 0
M  V30 15 O -6.612800 -4.384900 15.597100 0
M  V30 16 C -4.795300 -4.003100 17.115800 0
M  V30 17 C -3.427500 -3.870800 17.330900 0
M  V30 18 C -2.522300 -3.983000 16.280900 0
M  V30 19 C -1.411200 -1.845600 13.076100 0
M  V30 20 C -1.589700 -0.426200 12.585400 0
M  V30 21 H -0.953900 1.463100 10.398000 0
M  V30 22 H -1.436300 2.390400 9.143300 0
M  V30 23 H -1.391000 -0.899700 10.055400 0
M  V30 24 H -2.990200 -1.497600 9.683900 0
M  V30 25 H -3.680000 -0.498400 12.006600 0
M  V30 26 H -1.792400 -5.114500 12.079800 0
M  V30 27 H -3.391200 -5.380100 12.732700 0
M  V30 28 H -4.728500 -4.557800 13.770700 0
M  V30 29 H -7.151100 -5.026300 16.143600 0
M  V30 30 H -5.484400 -3.915300 17.929600 0
M  V30 31 H -3.065900 -3.679700 18.319700 0
M  V30 32 H -1.471700 -3.879900 16.455900 0
M  V30 33 H -0.465200 -2.281300 12.830700 0
M  V30 34 H -1.605100 -1.978800 14.120000 0
M  V30 35 H -1.873300 0.271100 13.345700 0
M  V30 36 H -0.754100 -0.039400 12.040400 0
M  V30 END ATOM
M  V30 BEGIN BOND
M  V30 1 2 2 1
M  V30 2 2 3 1
M  V30 3 1 4 1
M  V30 4 1 5 1
M  V30 5 1 6 5
M  V30 6 1 7 6
M  V30 7 1 8 7
M  V30 8 2 9 8
M  V30 9 1 10 8
M  V30 10 1 11 10
M  V30 11 1 12 11
M  V30 12 2 13 12
M  V30 13 1 14 13
M  V30 14 1 15 14
M  V30 15 2 16 14
M  V30 16 1 17 16
M  V30 17 1 18 12
M  V30 18 2 18 17
M  V30 19 1 19 7
M  V30 20 1 20 6
M  V30 21 1 20 19
M  V30 22 1 21 4
M  V30 23 1 22 4
M  V30 24 1 23 5
M  V30 25 1 24 5
M  V30 26 1 6 25 CFG=1
M  V30 27 1 26 10
M  V30 28 1 27 10
M  V30 29 1 28 13
M  V30 30 1 29 15
M  V30 31 1 30 16
M  V30 32 1 31 17
M  V30 33 1 32 18
M  V30 34 1 33 19
M  V30 35 1 34 19
M  V30 36 1 35 20
M  V30 37 1 36 20
M  V30 END BOND
M  V30 END CTAB
M  END
>  <i_m_Source_File_Index>  (3) 
3

>  <b_m_subgroup_collapsed>  (3) 
0

>  <s_m_Source_File>  (3) 
1XTJ_3000_ligands_analog_library_database_MW300_top50.sdf

>  <s_m_Source_Path>  (3) 
C:\Users\pham.congdat\OneDrive - Indivumed\Desktop\Work\Research\DDX39B

>  <s_m_entry_id>  (3) 
198646

>  <s_m_entry_name>  (3) 
1XTJ_3000_ligands_analog_library_database_MW300_top50.3

>  <s_m_subgroup_title>  (3) 
1XTJ_3000_ligands_analog_library_database_MW300_top50

>  <s_m_subgroupid>  (3) 
1XTJ_3000_ligands_analog_library_database_MW300_top50

>  <BIOSOLVEIT.HYDE_ATOM_SCORES [kJ/mol]>  (3) 
# Atom-ID; Total; Rec-Desolv; Rec-IA; Lig-Desolv; Lig-IA
1;-0.0675;0.0000;0.0000;-0.0675;0.0000
2;-11.0433;8.7503;-19.1900;3.2055;-3.8091
3;-6.1046;24.5141;-28.3611;2.8663;-5.1240
4;-3.8029;6.4384;-8.4288;10.3779;-12.1905
5;-2.8043;-1.3053;0.0000;-1.4990;0.0000
6;-0.8963;0.0000;0.0000;-0.8963;0.0000
7;0.0000;0.0000;0.0000;0.0000;0.0000
8;-0.2395;0.0000;0.0000;-0.2395;0.0000
9;-4.7675;3.8003;-8.4288;10.2612;-10.4002
10;-0.7010;0.3588;0.0000;-1.0598;0.0000
11;0.0000;0.0000;0.0000;0.0000;0.0000
12;-1.4654;-1.2019;0.0000;-0.2635;0.0000
13;-2.5318;-1.1657;0.0000;-1.3661;0.0000
14;-0.6431;-0.2989;0.0000;-0.3442;0.0000
15;-2.7758;6.6959;-8.2369;3.7846;-5.0194
16;-0.4121;-0.0746;0.0000;-0.3375;0.0000
17;-0.7380;-0.4653;0.0000;-0.2727;0.0000
18;-0.3539;0.0000;0.0000;-0.3539;0.0000
19;0.0000;0.0000;0.0000;0.0000;0.0000
20;-0.8715;-0.0319;0.0000;-0.8397;0.0000

>  <BIOSOLVEIT.HYDE_ESTIMATED_AFFINITY_LOWER_BOUNDARY [nM]>  (3) 
6.272153

>  <BIOSOLVEIT.HYDE_ESTIMATED_AFFINITY_UPPER_BOUNDARY [nM]>  (3) 
623.175520

>  <BIOSOLVEIT.HYDE_LIGAND_EFFICIENCY>  (3) 
0.504279

>  <BIOSOLVEIT.HYDE_LIGAND_LIPOPHILIC_EFFICIENCY>  (3) 
6.892986

>  <BIOSOLVEIT.INTER_CLASH range: 0=green, 1=yellow, 2=red>  (3) 
0

>  <BIOSOLVEIT.INTRA_CLASH range: 0=green, 1=yellow, 2=red>  (3) 
1

>  <BIOSOLVEIT.LOGP>  (3) 
0.311

>  <BIOSOLVEIT.MOLECULAR_WEIGHT>  (3) 
300.332

>  <BIOSOLVEIT.MOLECULE_CHECKSUM>  (3) 
LTQxLjEyMDQ7MC41MDQyNzk=

>  <BIOSOLVEIT.OPTIBRIUM.2C9 pKi>  (3) 
4.22145

>  <BIOSOLVEIT.OPTIBRIUM.2D6 affinity category>  (3) 
low

>  <BIOSOLVEIT.OPTIBRIUM.BBB category>  (3) 
-

>  <BIOSOLVEIT.OPTIBRIUM.BBB log([brain]:[blood])>  (3) 
-1.03072

>  <BIOSOLVEIT.OPTIBRIUM.HIA category>  (3) 
+

>  <BIOSOLVEIT.OPTIBRIUM.P-gp category>  (3) 
no

>  <BIOSOLVEIT.OPTIBRIUM.PPB90 category>  (3) 
low

>  <BIOSOLVEIT.OPTIBRIUM.hERG pIC50>  (3) 
4.64728

>  <BIOSOLVEIT.OPTIBRIUM.logD>  (3) 
0.0208404

>  <BIOSOLVEIT.OPTIBRIUM.logP>  (3) 
0.0208404

>  <BIOSOLVEIT.OPTIBRIUM.logS>  (3) 
4.41406

>  <BIOSOLVEIT.OPTIBRIUM.logS @ pH7.4>  (3) 
4.41406

>  <BIOSOLVEIT.TORSION_QUALITY range: 0=green/not rotatable, 1=yellow, 2=red>  (3) 
0

>  <BIOSOLVEIT.TPSA>  (3) 
109.93

>  <cleaned_smiles (canonical SMILES)>  (3) 
NS(=O)(=O)CC1CCN1C(=O)COc1cc(O)ccc1

$$$$
no name_1_003
     RDKit          3D

  0  0  0  0  0  0  0  0  0  0999 V3000
M  V30 BEGIN CTAB
M  V30 COUNTS 30 31 0 0 1
M  V30 BEGIN ATOM
M  V30 1 Cl 3.291700 4.507700 10.254100 0
M  V30 2 C 3.433800 2.813300 9.727900 0
M  V30 3 N 4.187800 1.957900 10.434800 0
M  V30 4 C 4.319000 0.673900 10.068800 0
M  V30 5 C 3.656600 0.225000 8.930800 0
M  V30 6 N 2.901300 1.075400 8.220000 0
M  V30 7 C 2.773100 2.358800 8.590200 0
M  V30 8 C 1.917100 3.322900 7.784700 0
M  V30 9 N 0.582400 3.419100 8.393200 0
M  V30 10 C -0.373200 2.580300 8.027700 0
M  V30 11 O -0.144000 1.716500 7.175400 0
M  V30 12 C -1.753300 2.679700 8.657000 0
M  V30 13 N -1.771100 1.927900 9.920200 0
M  V30 14 S -2.974000 0.838800 9.933000 0
M  V30 15 O -4.252800 1.421500 10.248900 0
M  V30 16 O -3.038000 0.066100 8.719700 0
M  V30 17 C -2.324200 -0.113600 11.228000 0
M  V30 18 C -1.020500 0.112000 11.180500 0
M  V30 19 C -0.596600 1.065300 10.080500 0
M  V30 20 H 4.924300 0.004800 10.644000 0
M  V30 21 H 3.749500 -0.795700 8.623300 0
M  V30 22 H 1.826200 2.965400 6.780200 0
M  V30 23 H 2.377000 4.289000 7.779200 0
M  V30 24 H 0.396800 4.118500 9.083500 0
M  V30 25 H -2.480700 2.270000 7.987900 0
M  V30 26 H -1.984200 3.706500 8.849900 0
M  V30 27 H -2.856600 -0.741800 11.911300 0
M  V30 28 H -0.326700 -0.339000 11.859000 0
M  V30 29 H 0.260900 1.634100 10.374000 0
M  V30 30 H -0.381300 0.536700 9.175500 0
M  V30 END ATOM
M  V30 BEGIN BOND
M  V30 1 1 2 1
M  V30 2 2 3 2
M  V30 3 1 4 3
M  V30 4 2 5 4
M  V30 5 1 6 5
M  V30 6 1 7 2
M  V30 7 2 7 6
M  V30 8 1 8 7
M  V30 9 1 9 8
M  V30 10 1 10 9
M  V30 11 2 11 10
M  V30 12 1 12 10
M  V30 13 1 13 12
M  V30 14 1 14 13
M  V30 15 2 15 14
M  V30 16 2 16 14
M  V30 17 1 17 14
M  V30 18 2 18 17
M  V30 19 1 19 13
M  V30 20 1 19 18
M  V30 21 1 20 4
M  V30 22 1 21 5
M  V30 23 1 22 8
M  V30 24 1 23 8
M  V30 25 1 24 9
M  V30 26 1 25 12
M  V30 27 1 26 12
M  V30 28 1 27 17
M  V30 29 1 28 18
M  V30 30 1 29 19
M  V30 31 1 30 19
M  V30 END BOND
M  V30 END CTAB
M  END
>  <i_m_Source_File_Index>  (4) 
4

>  <b_m_subgroup_collapsed>  (4) 
0

>  <s_m_Source_File>  (4) 
1XTJ_3000_ligands_analog_library_database_MW300_top50.sdf

>  <s_m_Source_Path>  (4) 
C:\Users\pham.congdat\OneDrive - Indivumed\Desktop\Work\Research\DDX39B

>  <s_m_entry_id>  (4) 
198647

>  <s_m_entry_name>  (4) 
1XTJ_3000_ligands_analog_library_database_MW300_top50.4

>  <s_m_subgroup_title>  (4) 
1XTJ_3000_ligands_analog_library_database_MW300_top50

>  <s_m_subgroupid>  (4) 
1XTJ_3000_ligands_analog_library_database_MW300_top50

>  <BIOSOLVEIT.HYDE_ATOM_SCORES [kJ/mol]>  (4) 
# Atom-ID; Total; Rec-Desolv; Rec-IA; Lig-Desolv; Lig-IA
1;-0.3033;0.0000;0.0000;-0.3033;0.0000
2;0.0000;0.0000;0.0000;0.0000;0.0000
3;0.0000;0.0000;0.0000;0.0000;0.0000
4;0.0000;0.0000;0.0000;0.0000;0.0000
5;0.0000;0.0000;0.0000;0.0000;0.0000
6;0.0000;0.0000;0.0000;0.0000;0.0000
7;0.0000;0.0000;0.0000;0.0000;0.0000
8;-0.0396;0.0000;0.0000;-0.0396;0.0000
9;-2.9202;8.1401;-9.6218;6.9898;-8.4283
10;-0.1601;0.0000;0.0000;-0.1601;0.0000
11;-3.1661;8.8878;-12.3964;1.6318;-1.2893
12;-2.9673;-1.0395;0.0000;-1.9278;0.0000
13;-4.1790;6.0775;-8.4287;10.3626;-12.1904
14;-0.0921;0.0000;0.0000;-0.0921;0.0000
15;-5.3758;24.6582;-27.6856;2.7478;-5.0962
16;-3.4087;8.2688;-12.3564;3.1316;-2.4527
17;-1.1144;0.0000;0.0000;-1.1144;0.0000
18;-0.2236;0.0000;0.0000;-0.2236;0.0000
19;-0.1997;0.0000;0.0000;-0.1997;0.0000

>  <BIOSOLVEIT.HYDE_ESTIMATED_AFFINITY_LOWER_BOUNDARY [nM]>  (4) 
4291.433459

>  <BIOSOLVEIT.HYDE_ESTIMATED_AFFINITY_UPPER_BOUNDARY [nM]>  (4) 
426379.287068

>  <BIOSOLVEIT.HYDE_LIGAND_EFFICIENCY>  (4) 
0.321912

>  <BIOSOLVEIT.HYDE_LIGAND_LIPOPHILIC_EFFICIENCY>  (4) 
3.812901

>  <BIOSOLVEIT.INTER_CLASH range: 0=green, 1=yellow, 2=red>  (4) 
0

>  <BIOSOLVEIT.INTRA_CLASH range: 0=green, 1=yellow, 2=red>  (4) 
0

>  <BIOSOLVEIT.LOGP>  (4) 
0.5559

>  <BIOSOLVEIT.MOLECULAR_WEIGHT>  (4) 
302.74

>  <BIOSOLVEIT.MOLECULE_CHECKSUM>  (4) 
LTI0LjkzNzI7MC4zMjE5MTI=

>  <BIOSOLVEIT.OPTIBRIUM.2C9 pKi>  (4) 
4.4619

>  <BIOSOLVEIT.OPTIBRIUM.2D6 affinity category>  (4) 
low

>  <BIOSOLVEIT.OPTIBRIUM.BBB category>  (4) 
-

>  <BIOSOLVEIT.OPTIBRIUM.BBB log([brain]:[blood])>  (4) 
-0.688164

>  <BIOSOLVEIT.OPTIBRIUM.HIA category>  (4) 
+

>  <BIOSOLVEIT.OPTIBRIUM.P-gp category>  (4) 
no

>  <BIOSOLVEIT.OPTIBRIUM.PPB90 category>  (4) 
low

>  <BIOSOLVEIT.OPTIBRIUM.hERG pIC50>  (4) 
4.24128

>  <BIOSOLVEIT.OPTIBRIUM.logD>  (4) 
0.968361

>  <BIOSOLVEIT.OPTIBRIUM.logP>  (4) 
0.968361

>  <BIOSOLVEIT.OPTIBRIUM.logS>  (4) 
2.84881

>  <BIOSOLVEIT.OPTIBRIUM.logS @ pH7.4>  (4) 
2.84881

>  <BIOSOLVEIT.TORSION_QUALITY range: 0=green/not rotatable, 1=yellow, 2=red>  (4) 
1

>  <BIOSOLVEIT.TPSA>  (4) 
92.26

>  <cleaned_smiles (canonical SMILES)>  (4) 
O=C(CN1CC=CS1(=O)=O)NCc1[n]cc[n]c1Cl

$$$$
no name_1_008
     RDKit          3D

  0  0  0  0  0  0  0  0  0  0999 V3000
M  V30 BEGIN CTAB
M  V30 COUNTS 37 38 0 0 1
M  V30 BEGIN ATOM
M  V30 1 O 3.054100 -2.617100 9.582100 0
M  V30 2 C 1.850300 -2.713000 9.840500 0
M  V30 3 N 1.035200 -1.704400 9.578400 0
M  V30 4 C 1.562500 -0.469700 8.979600 0
M  V30 5 C 0.407700 0.390500 8.492600 0
M  V30 6 O -0.204500 0.078800 7.466200 0
M  V30 7 N 0.058600 1.473100 9.168200 0
M  V30 8 C -1.058200 2.304900 8.697200 0
M  V30 9 C -2.371700 1.702200 9.166400 0
M  V30 10 N -3.216100 2.251500 10.010100 0
M  V30 11 N -4.260700 1.387800 10.163900 0
M  V30 12 N -4.017400 0.294300 9.381300 0
M  V30 13 N -2.883100 0.473600 8.778200 0 CHG=-1
M  V30 14 C 1.305200 -3.989500 10.459800 0 CFG=2
M  V30 15 O 0.453700 -4.641200 9.528700 0
M  V30 16 C 0.517400 -3.648000 11.714000 0
M  V30 17 C 1.466600 -3.545900 12.896300 0
M  V30 18 C 2.000200 -2.308500 13.240200 0
M  V30 19 C 2.868700 -2.222200 14.323100 0
M  V30 20 C 3.199400 -3.358300 15.053000 0
M  V30 21 C 2.661000 -4.592200 14.701400 0
M  V30 22 C 1.791500 -4.688700 13.620000 0
M  V30 23 H 0.060400 -1.781900 9.787600 0
M  V30 24 H 2.196600 -0.716400 8.153800 0
M  V30 25 H 2.125000 0.070200 9.712400 0
M  V30 26 H 0.554300 1.725400 9.999200 0
M  V30 27 H -1.046300 2.345800 7.628000 0
M  V30 28 H -0.957900 3.293900 9.093100 0
M  V30 29 H 2.117600 -4.637600 10.714300 0
M  V30 30 H 0.880200 -4.632600 8.624300 0
M  V30 31 H -0.204700 -4.415000 11.901600 0
M  V30 32 H 0.016600 -2.712400 11.576900 0
M  V30 33 H 1.745700 -1.433900 12.678800 0
M  V30 34 H 3.285000 -1.275200 14.596100 0
M  V30 35 H 3.868000 -3.283800 15.885200 0
M  V30 36 H 2.915900 -5.466700 15.262800 0
M  V30 37 H 1.375200 -5.635800 13.346600 0
M  V30 END ATOM
M  V30 BEGIN BOND
M  V30 1 2 2 1
M  V30 2 1 3 2
M  V30 3 1 4 3
M  V30 4 1 5 4
M  V30 5 2 6 5
M  V30 6 1 7 5
M  V30 7 1 8 7
M  V30 8 1 9 8
M  V30 9 2 10 9
M  V30 10 1 11 10
M  V30 11 2 12 11
M  V30 12 1 13 9
M  V30 13 1 13 12
M  V30 14 1 14 2
M  V30 15 1 15 14
M  V30 16 1 16 14
M  V30 17 1 17 16
M  V30 18 2 18 17
M  V30 19 1 19 18
M  V30 20 2 20 19
M  V30 21 1 21 20
M  V30 22 1 22 17
M  V30 23 2 22 21
M  V30 24 1 23 3
M  V30 25 1 24 4
M  V30 26 1 25 4
M  V30 27 1 26 7
M  V30 28 1 27 8
M  V30 29 1 28 8
M  V30 30 1 14 29 CFG=1
M  V30 31 1 30 15
M  V30 32 1 31 16
M  V30 33 1 32 16
M  V30 34 1 33 18
M  V30 35 1 34 19
M  V30 36 1 35 20
M  V30 37 1 36 21
M  V30 38 1 37 22
M  V30 END BOND
M  V30 END CTAB
M  END
>  <i_m_Source_File_Index>  (5) 
5

>  <b_m_subgroup_collapsed>  (5) 
0

>  <s_m_Source_File>  (5) 
1XTJ_3000_ligands_analog_library_database_MW300_top50.sdf

>  <s_m_Source_Path>  (5) 
C:\Users\pham.congdat\OneDrive - Indivumed\Desktop\Work\Research\DDX39B

>  <s_m_entry_id>  (5) 
198648

>  <s_m_entry_name>  (5) 
1XTJ_3000_ligands_analog_library_database_MW300_top50.5

>  <s_m_subgroup_title>  (5) 
1XTJ_3000_ligands_analog_library_database_MW300_top50

>  <s_m_subgroupid>  (5) 
1XTJ_3000_ligands_analog_library_database_MW300_top50

>  <BIOSOLVEIT.HYDE_ATOM_SCORES [kJ/mol]>  (5) 
# Atom-ID; Total; Rec-Desolv; Rec-IA; Lig-Desolv; Lig-IA
1;7.8412;6.1552;0.0000;1.6860;0.0000
2;0.0000;0.0000;0.0000;0.0000;0.0000
3;1.0156;0.0000;0.0000;1.0156;0.0000
4;0.0000;0.0000;0.0000;0.0000;0.0000
5;0.0000;0.0000;0.0000;0.0000;0.0000
6;-10.7188;9.7641;-19.9981;9.9150;-10.3999
7;0.0000;0.0000;0.0000;0.0000;0.0000
8;-1.6227;-0.3933;0.0000;-1.2294;0.0000
9;-0.2194;0.0000;0.0000;-0.2194;0.0000
10;11.0489;7.9565;-1.8226;6.7374;-1.8226
11;-3.3304;6.4708;-8.2610;6.7208;-8.2610
12;-2.3830;6.5213;-7.8169;6.7295;-7.8169
13;-11.0969;10.0000;-19.6475;6.8312;-8.2807
14;-0.5816;0.0000;0.0000;-0.5816;0.0000
15;-6.0657;3.9790;-9.4835;8.9223;-9.4835
16;-0.5474;0.0000;0.0000;-0.5474;0.0000
17;0.0000;0.0000;0.0000;0.0000;0.0000
18;0.0000;0.0000;0.0000;0.0000;0.0000
19;0.0000;0.0000;0.0000;0.0000;0.0000
20;0.3949;0.7976;0.0000;-0.4027;0.0000
21;-1.6850;-0.8005;0.0000;-0.8845;0.0000
22;-0.6944;0.0000;0.0000;-0.6944;0.0000

>  <BIOSOLVEIT.HYDE_ESTIMATED_AFFINITY_LOWER_BOUNDARY [nM]>  (5) 
41863.269045

>  <BIOSOLVEIT.HYDE_ESTIMATED_AFFINITY_UPPER_BOUNDARY [nM]>  (5) 
4159363.294836

>  <BIOSOLVEIT.HYDE_LIGAND_EFFICIENCY>  (5) 
0.215064

>  <BIOSOLVEIT.HYDE_LIGAND_LIPOPHILIC_EFFICIENCY>  (5) 
4.445470

>  <BIOSOLVEIT.INTER_CLASH range: 0=green, 1=yellow, 2=red>  (5) 
0

>  <BIOSOLVEIT.INTRA_CLASH range: 0=green, 1=yellow, 2=red>  (5) 
0

>  <BIOSOLVEIT.LOGP>  (5) 
-1.0659

>  <BIOSOLVEIT.MOLECULAR_WEIGHT>  (5) 
303.301

>  <BIOSOLVEIT.MOLECULE_CHECKSUM>  (5) 
LTE5LjI5MDY7MC4yMTUwNjQ=

>  <BIOSOLVEIT.TORSION_QUALITY range: 0=green/not rotatable, 1=yellow, 2=red>  (5) 
1

>  <BIOSOLVEIT.TPSA>  (5) 
131.2

>  <cleaned_smiles (canonical SMILES)>  (5) 
OC(Cc1ccccc1)C(=O)NCC(=O)NCc1[nH][n][n][n]1

$$$$
