no name_1_009
phSeeSAR  05142510573D 1   1.00000     0.00000     0
SeeSAR 14.1.2 pham.congdat
 35 36  0  0  0  0            999 V2000
   -2.7152    1.0311    9.8418 S   0  0  0  0  0  0  0  0  0  0  0  0
   -3.9928    1.4397   10.3659 O   0  0  0  0  0  0  0  0  0  0  0  0
   -1.6673    1.7562   10.5123 O   0  0  0  0  0  0  0  0  0  0  0  0
   -2.6575    1.3465    8.2436 N   0  5  0  0  0  0  0  0  0  0  0  0
   -2.4910   -0.7439   10.1150 C   0  0  0  0  0  0  0  0  0  0  0  0
   -2.9673   -1.1055   11.5110 C   0  0  1  0  0  0  0  0  0  0  0  0
   -2.6182   -2.4677   11.9692 N   0  0  0  0  0  0  0  0  0  0  0  0
   -3.1990   -3.6558   11.9045 C   0  0  0  0  0  0  0  0  0  0  0  0
   -4.2973   -3.7771   11.3530 O   0  0  0  0  0  0  0  0  0  0  0  0
   -2.5139   -4.8705   12.5090 C   0  0  0  0  0  0  0  0  0  0  0  0
   -2.0064   -4.5377   13.7928 O   0  0  0  0  0  0  0  0  0  0  0  0
   -2.8773   -4.3349   14.8506 C   0  0  0  0  0  0  0  0  0  0  0  0
   -4.2460   -4.4674   14.6425 C   0  0  0  0  0  0  0  0  0  0  0  0
   -5.1122   -4.2614   15.7115 C   0  0  0  0  0  0  0  0  0  0  0  0
   -6.4772   -4.3908   15.5145 O   0  0  0  0  0  0  0  0  0  0  0  0
   -4.6292   -3.9273   16.9724 C   0  0  0  0  0  0  0  0  0  0  0  0
   -3.2564   -3.8002   17.1558 C   0  0  0  0  0  0  0  0  0  0  0  0
   -2.3706   -4.0016   16.1024 C   0  0  0  0  0  0  0  0  0  0  0  0
   -1.3750   -1.9475   12.5445 C   0  0  0  0  0  0  0  0  0  0  0  0
   -2.0863   -0.6038   12.6285 C   0  0  0  0  0  0  0  0  0  0  0  0
   -2.4249    2.3087    8.1019 H   0  0  0  0  0  0  0  0  0  0  0  0
   -1.4548   -0.9918   10.0165 H   0  0  0  0  0  0  0  0  0  0  0  0
   -3.0590   -1.2907    9.3916 H   0  0  0  0  0  0  0  0  0  0  0  0
   -4.0000   -0.8721   11.6659 H   0  0  0  0  0  0  0  0  0  0  0  0
   -1.7080   -5.1776   11.8755 H   0  0  0  0  0  0  0  0  0  0  0  0
   -3.2198   -5.6693   12.6007 H   0  0  0  0  0  0  0  0  0  0  0  0
   -4.6267   -4.7235   13.6759 H   0  0  0  0  0  0  0  0  0  0  0  0
   -7.1119   -4.1788   16.2575 H   0  0  0  0  0  0  0  0  0  0  0  0
   -5.3032   -3.7705   17.7885 H   0  0  0  0  0  0  0  0  0  0  0  0
   -2.8757   -3.5434   18.1223 H   0  0  0  0  0  0  0  0  0  0  0  0
   -1.3159   -3.9017   16.2527 H   0  0  0  0  0  0  0  0  0  0  0  0
   -0.5311   -1.9697   11.8870 H   0  0  0  0  0  0  0  0  0  0  0  0
   -1.1033   -2.3726   13.4880 H   0  0  0  0  0  0  0  0  0  0  0  0
   -2.5927   -0.4196   13.5528 H   0  0  0  0  0  0  0  0  0  0  0  0
   -1.4808    0.2424   12.3788 H   0  0  0  0  0  0  0  0  0  0  0  0
  1  2  2  0  0  0  0
  1  3  2  0  0  0  0
  1  4  1  0  0  0  0
  1  5  1  0  0  0  0
  5  6  1  0  0  0  0
  6  7  1  0  0  0  0
  6 20  1  0  0  0  0
  7  8  1  0  0  0  0
  7 19  1  0  0  0  0
  8  9  2  0  0  0  0
  8 10  1  0  0  0  0
 10 11  1  0  0  0  0
 11 12  1  0  0  0  0
 12 13  2  0  0  0  0
 12 18  1  0  0  0  0
 13 14  1  0  0  0  0
 14 15  1  0  0  0  0
 14 16  2  0  0  0  0
 16 17  1  0  0  0  0
 17 18  2  0  0  0  0
 19 20  1  0  0  0  0
 20 35  1  0  0  0  0
  4 21  1  0  0  0  0
  5 22  1  0  0  0  0
  5 23  1  0  0  0  0
  6 24  1  0  0  0  0
 10 25  1  0  0  0  0
 10 26  1  0  0  0  0
 13 27  1  0  0  0  0
 15 28  1  0  0  0  0
 16 29  1  0  0  0  0
 17 30  1  0  0  0  0
 18 31  1  0  0  0  0
 19 32  1  0  0  0  0
 19 33  1  0  0  0  0
 20 34  1  0  0  0  0
M  CHG  1   4  -1
M  END
> <BIOSOLVEIT.HYDE_ATOM_SCORES [kJ/mol]>
# Atom-ID; Total; Rec-Desolv; Rec-IA; Lig-Desolv; Lig-IA
1;-0.0707;0.0000;0.0000;-0.0707;0.0000
2;-5.2931;23.8706;-26.9450;2.8383;-5.0570
3;-1.9619;6.6819;-7.9569;3.0606;-3.7474
4;-11.4928;9.2908;-19.9950;11.3997;-12.1882
5;-2.9005;-1.3899;0.0000;-1.5106;0.0000
6;-2.8047;-1.8362;0.0000;-0.9685;0.0000
7;0.0000;0.0000;0.0000;0.0000;0.0000
8;-0.2867;0.0000;0.0000;-0.2867;0.0000
9;-2.7802;5.5869;-8.3313;10.2442;-10.2799
10;0.1964;1.1951;0.0000;-0.9987;0.0000
11;0.0000;0.0000;0.0000;0.0000;0.0000
12;-1.4597;-1.2019;0.0000;-0.2578;0.0000
13;-2.5295;-1.1657;0.0000;-1.3638;0.0000
14;-0.3854;0.0000;0.0000;-0.3854;0.0000
15;-3.5998;6.3033;-8.4236;3.6538;-5.1332
16;-0.3944;-0.0572;0.0000;-0.3372;0.0000
17;-0.7373;-0.4280;0.0000;-0.3093;0.0000
18;-0.3163;0.0000;0.0000;-0.3163;0.0000
19;0.0000;0.0000;0.0000;0.0000;0.0000
20;-1.0083;-0.0319;0.0000;-0.9765;0.0000

> <BIOSOLVEIT.HYDE_ESTIMATED_AFFINITY_LOWER_BOUNDARY [nM]>
16.762868

> <BIOSOLVEIT.HYDE_ESTIMATED_AFFINITY_UPPER_BOUNDARY [nM]>
1665.490046

> <BIOSOLVEIT.HYDE_LIGAND_EFFICIENCY>
0.474394

> <BIOSOLVEIT.HYDE_LIGAND_LIPOPHILIC_EFFICIENCY>
5.372555

> <BIOSOLVEIT.INTER_CLASH range: 0=green, 1=yellow, 2=red>
0

> <BIOSOLVEIT.INTRA_CLASH range: 0=green, 1=yellow, 2=red>
0

> <BIOSOLVEIT.LOGP>
1.4045

> <BIOSOLVEIT.MOLECULAR_WEIGHT>
299.325

> <BIOSOLVEIT.MOLECULE_CHECKSUM>
LTM4LjY4MzU7MC40NzQzOTQ=

> <BIOSOLVEIT.TORSION_QUALITY range: 0=green/not rotatable, 1=yellow, 2=red>
0

> <BIOSOLVEIT.TPSA>
107.71

> <cleaned_smiles (canonical SMILES)>
NS(=O)(=O)CC1CCN1C(=O)COc1cc(O)ccc1

> <BIOSOLVEIT.OPTIBRIUM.2C9 pKi>
4.22145

> <BIOSOLVEIT.OPTIBRIUM.2D6 affinity category>
low

> <BIOSOLVEIT.OPTIBRIUM.BBB category>
-

> <BIOSOLVEIT.OPTIBRIUM.BBB log([brain]:[blood])>
-1.03072

> <BIOSOLVEIT.OPTIBRIUM.hERG pIC50>
4.64728

> <BIOSOLVEIT.OPTIBRIUM.HIA category>
+

> <BIOSOLVEIT.OPTIBRIUM.logD>
0.0208404

> <BIOSOLVEIT.OPTIBRIUM.logP>
0.0208404

> <BIOSOLVEIT.OPTIBRIUM.logS @ pH7.4>
4.41406

> <BIOSOLVEIT.OPTIBRIUM.logS>
4.41406

> <BIOSOLVEIT.OPTIBRIUM.P-gp category>
no

> <BIOSOLVEIT.OPTIBRIUM.PPB90 category>
low

$$$$
no name_1_001
phSeeSAR  05142510573D 1   1.00000     0.00000     0
SeeSAR 14.1.2 pham.congdat
 34 35  0  0  0  0            999 V2000
    4.4741   -0.9616    9.0488 S   0  0  0  0  0  0  0  0  0  0  0  0
    3.1518   -1.5318    9.0508 O   0  0  0  0  0  0  0  0  0  0  0  0
    5.2060   -1.4507    7.9093 O   0  0  0  0  0  0  0  0  0  0  0  0
    4.3651    0.6629    8.9683 N   0  0  0  0  0  0  0  0  0  0  0  0
    3.5122    1.0753    7.8519 C   0  0  0  0  0  0  0  0  0  0  0  0
    3.0117    2.1760    8.7586 C   0  0  0  0  0  0  0  0  0  0  0  0
    1.5234    2.4060    8.5668 C   0  0  0  0  0  0  0  0  0  0  0  0
    0.7778    1.2520    9.0898 N   0  0  0  0  0  0  0  0  0  0  0  0
   -0.1652    1.4313   10.0001 C   0  0  0  0  0  0  0  0  0  0  0  0
   -0.4191    2.5680   10.4106 O   0  0  0  0  0  0  0  0  0  0  0  0
   -0.9173    0.2674   10.5275 C   0  0  0  0  0  0  0  0  0  0  0  0
   -2.2507    0.0445   10.3903 C   0  0  0  0  0  0  0  0  0  0  0  0
   -2.5574   -1.1454   11.0241 N   0  0  0  0  0  0  0  0  0  0  0  0
   -1.3946   -1.6719   11.5635 C   0  0  0  0  0  0  0  0  0  0  0  0
   -0.3649   -0.8253   11.2756 C   0  0  0  0  0  0  0  0  0  0  0  0
   -3.2150    0.9265    9.6820 C   0  0  0  0  0  0  0  0  0  0  0  0
   -3.0274    1.2212    8.4787 O   0  0  0  0  0  0  0  0  0  0  0  0
   -4.2156    1.3752   10.2883 O   0  5  0  0  0  0  0  0  0  0  0  0
    3.3095    1.1741    9.8410 C   0  0  0  0  0  0  0  0  0  0  0  0
    5.3369   -1.4338   10.5681 C   0  0  0  0  0  0  0  0  0  0  0  0
    2.7717    0.3589    7.5633 H   0  0  0  0  0  0  0  0  0  0  0  0
    4.0394    1.4126    6.9840 H   0  0  0  0  0  0  0  0  0  0  0  0
    3.6124    3.0613    8.7774 H   0  0  0  0  0  0  0  0  0  0  0  0
    1.3123    2.5244    7.5246 H   0  0  0  0  0  0  0  0  0  0  0  0
    1.2283    3.2895    9.0931 H   0  0  0  0  0  0  0  0  0  0  0  0
    0.9833    0.3316    8.7574 H   0  0  0  0  0  0  0  0  0  0  0  0
   -3.4667   -1.5572   11.0834 H   0  0  0  0  0  0  0  0  0  0  0  0
   -1.3178   -2.5871   12.1125 H   0  0  0  0  0  0  0  0  0  0  0  0
    0.6603   -0.9519   11.5547 H   0  0  0  0  0  0  0  0  0  0  0  0
    3.6542    1.5973   10.7613 H   0  0  0  0  0  0  0  0  0  0  0  0
    2.5186    0.4817   10.0410 H   0  0  0  0  0  0  0  0  0  0  0  0
    6.3194   -1.0102   10.5668 H   0  0  0  0  0  0  0  0  0  0  0  0
    4.7930   -1.0703   11.4149 H   0  0  0  0  0  0  0  0  0  0  0  0
    5.4083   -2.5001   10.6210 H   0  0  0  0  0  0  0  0  0  0  0  0
  1  2  2  0  0  0  0
  1  3  2  0  0  0  0
  1  4  1  0  0  0  0
  1 20  1  0  0  0  0
  4  5  1  0  0  0  0
  4 19  1  0  0  0  0
  5  6  1  0  0  0  0
  6  7  1  0  0  0  0
  6 19  1  0  0  0  0
  7  8  1  0  0  0  0
  8  9  1  0  0  0  0
  9 10  2  0  0  0  0
  9 11  1  0  0  0  0
 11 12  2  0  0  0  0
 11 15  1  0  0  0  0
 12 13  1  0  0  0  0
 12 16  1  0  0  0  0
 13 14  1  0  0  0  0
 14 15  2  0  0  0  0
 16 17  2  0  0  0  0
 16 18  1  0  0  0  0
  5 21  1  0  0  0  0
  5 22  1  0  0  0  0
  6 23  1  0  0  0  0
  7 24  1  0  0  0  0
  7 25  1  0  0  0  0
  8 26  1  0  0  0  0
 13 27  1  0  0  0  0
 14 28  1  0  0  0  0
 15 29  1  0  0  0  0
 20 34  1  0  0  0  0
 19 30  1  0  0  0  0
 19 31  1  0  0  0  0
 20 32  1  0  0  0  0
 20 33  1  0  0  0  0
M  CHG  1  18  -1
M  END
> <BIOSOLVEIT.HYDE_ATOM_SCORES [kJ/mol]>
# Atom-ID; Total; Rec-Desolv; Rec-IA; Lig-Desolv; Lig-IA
1;-0.0330;0.0000;0.0000;-0.0330;0.0000
2;-0.1004;0.0000;0.0000;-0.1004;0.0000
3;-1.6692;-1.6400;0.0000;-0.0291;0.0000
4;0.0000;0.0000;0.0000;0.0000;0.0000
5;0.0000;0.0000;0.0000;0.0000;0.0000
6;0.0000;0.0000;0.0000;0.0000;0.0000
7;-0.1587;0.0000;0.0000;-0.1587;0.0000
8;-0.0600;0.0000;0.0000;-0.0600;0.0000
9;0.0000;0.0000;0.0000;0.0000;0.0000
10;-5.4490;14.2469;-17.7279;10.4322;-12.4002
11;-0.2148;0.0000;0.0000;-0.2148;0.0000
12;-0.5459;0.0000;0.0000;-0.5459;0.0000
13;5.4291;-1.4666;0.0000;6.8957;0.0000
14;-0.1270;0.2448;0.0000;-0.3717;0.0000
15;-0.0989;0.0000;0.0000;-0.0989;0.0000
16;-0.4222;0.0000;0.0000;-0.4222;0.0000
17;-11.9283;8.9453;-19.9979;4.2605;-5.1362
18;0.8949;23.8592;-20.6185;3.8176;-6.1634
19;0.0000;0.0000;0.0000;0.0000;0.0000
20;-0.0296;0.7028;0.0000;-0.7324;0.0000

> <BIOSOLVEIT.HYDE_ESTIMATED_AFFINITY_LOWER_BOUNDARY [nM]>
237921.866084

> <BIOSOLVEIT.HYDE_ESTIMATED_AFFINITY_UPPER_BOUNDARY [nM]>
23638944.100867

> <BIOSOLVEIT.HYDE_LIGAND_EFFICIENCY>
0.183748

> <BIOSOLVEIT.HYDE_LIGAND_LIPOPHILIC_EFFICIENCY>
3.974969

> <BIOSOLVEIT.INTER_CLASH range: 0=green, 1=yellow, 2=red>
0

> <BIOSOLVEIT.INTRA_CLASH range: 0=green, 1=yellow, 2=red>
0

> <BIOSOLVEIT.LOGP>
-1.35

> <BIOSOLVEIT.MOLECULAR_WEIGHT>
300.313

> <BIOSOLVEIT.MOLECULE_CHECKSUM>
LTE0Ljk4MzM7MC4xODM3NDg=

> <BIOSOLVEIT.TORSION_QUALITY range: 0=green/not rotatable, 1=yellow, 2=red>
1

> <BIOSOLVEIT.TPSA>
122.4

> <cleaned_smiles (canonical SMILES)>
CS(=O)(=O)N1CC(C1)CNC(=O)c1cc[nH]c1C(O)=O

> <BIOSOLVEIT.OPTIBRIUM.2C9 pKi>
4.18889

> <BIOSOLVEIT.OPTIBRIUM.2D6 affinity category>
low

> <BIOSOLVEIT.OPTIBRIUM.BBB category>
-

> <BIOSOLVEIT.OPTIBRIUM.BBB log([brain]:[blood])>
-0.984234

> <BIOSOLVEIT.OPTIBRIUM.hERG pIC50>
2.67053

> <BIOSOLVEIT.OPTIBRIUM.HIA category>
-

> <BIOSOLVEIT.OPTIBRIUM.logD>
-2.53208

> <BIOSOLVEIT.OPTIBRIUM.logP>
0.0685517

> <BIOSOLVEIT.OPTIBRIUM.logS @ pH7.4>
4.17502

> <BIOSOLVEIT.OPTIBRIUM.logS>
3.73677

> <BIOSOLVEIT.OPTIBRIUM.P-gp category>
yes

> <BIOSOLVEIT.OPTIBRIUM.PPB90 category>
low

$$$$
no name_1_006
phSeeSAR  05142510573D 1   1.00000     0.00000     0
SeeSAR 14.1.2 pham.congdat
 36 37  0  0  0  0            999 V2000
   -2.9257    0.8914    9.6709 S   0  0  0  0  0  0  0  0  0  0  0  0
   -3.1759    0.8654    8.2530 O   0  0  0  0  0  0  0  0  0  0  0  0
   -4.1223    1.2970   10.3618 O   0  0  0  0  0  0  0  0  0  0  0  0
   -1.7278    1.9491    9.9920 N   0  0  0  0  0  0  0  0  0  0  0  0
   -2.4378   -0.7601   10.2277 C   0  0  0  0  0  0  0  0  0  0  0  0
   -2.7315   -0.9017   11.7195 C   0  0  1  0  0  0  0  0  0  0  0  0
   -2.5082   -2.2566   12.2026 N   0  0  0  0  0  0  0  0  0  0  0  0
   -3.0811   -3.4227   11.9502 C   0  0  0  0  0  0  0  0  0  0  0  0
   -4.0170   -3.4901   11.1472 O   0  0  0  0  0  0  0  0  0  0  0  0
   -2.5872   -4.6792   12.6488 C   0  0  0  0  0  0  0  0  0  0  0  0
   -2.1134   -4.3450   13.9450 O   0  0  0  0  0  0  0  0  0  0  0  0
   -3.0040   -4.2314   14.9998 C   0  0  0  0  0  0  0  0  0  0  0  0
   -4.3671   -4.3672   14.7596 C   0  0  0  0  0  0  0  0  0  0  0  0
   -5.2531   -4.2512   15.8260 C   0  0  0  0  0  0  0  0  0  0  0  0
   -6.6128   -4.3849   15.5971 O   0  0  0  0  0  0  0  0  0  0  0  0
   -4.7953   -4.0031   17.1158 C   0  0  0  0  0  0  0  0  0  0  0  0
   -3.4275   -3.8708   17.3309 C   0  0  0  0  0  0  0  0  0  0  0  0
   -2.5223   -3.9830   16.2809 C   0  0  0  0  0  0  0  0  0  0  0  0
   -1.4112   -1.8456   13.0761 C   0  0  0  0  0  0  0  0  0  0  0  0
   -1.5897   -0.4262   12.5854 C   0  0  0  0  0  0  0  0  0  0  0  0
   -0.9539    1.4631   10.3980 H   0  0  0  0  0  0  0  0  0  0  0  0
   -1.4363    2.3904    9.1433 H   0  0  0  0  0  0  0  0  0  0  0  0
   -1.3910   -0.8997   10.0554 H   0  0  0  0  0  0  0  0  0  0  0  0
   -2.9902   -1.4976    9.6839 H   0  0  0  0  0  0  0  0  0  0  0  0
   -3.6800   -0.4984   12.0066 H   0  0  0  0  0  0  0  0  0  0  0  0
   -1.7924   -5.1145   12.0798 H   0  0  0  0  0  0  0  0  0  0  0  0
   -3.3912   -5.3801   12.7327 H   0  0  0  0  0  0  0  0  0  0  0  0
   -4.7285   -4.5578   13.7707 H   0  0  0  0  0  0  0  0  0  0  0  0
   -7.1511   -5.0263   16.1436 H   0  0  0  0  0  0  0  0  0  0  0  0
   -5.4844   -3.9153   17.9296 H   0  0  0  0  0  0  0  0  0  0  0  0
   -3.0659   -3.6797   18.3197 H   0  0  0  0  0  0  0  0  0  0  0  0
   -1.4717   -3.8799   16.4559 H   0  0  0  0  0  0  0  0  0  0  0  0
   -0.4652   -2.2813   12.8307 H   0  0  0  0  0  0  0  0  0  0  0  0
   -1.6051   -1.9788   14.1200 H   0  0  0  0  0  0  0  0  0  0  0  0
   -1.8733    0.2711   13.3457 H   0  0  0  0  0  0  0  0  0  0  0  0
   -0.7541   -0.0394   12.0404 H   0  0  0  0  0  0  0  0  0  0  0  0
  1  2  2  0  0  0  0
  1  3  2  0  0  0  0
  1  4  1  0  0  0  0
  1  5  1  0  0  0  0
  5  6  1  0  0  0  0
  6  7  1  0  0  0  0
  6 20  1  0  0  0  0
  7  8  1  0  0  0  0
  7 19  1  0  0  0  0
  8  9  2  0  0  0  0
  8 10  1  0  0  0  0
 10 11  1  0  0  0  0
 11 12  1  0  0  0  0
 12 13  2  0  0  0  0
 12 18  1  0  0  0  0
 13 14  1  0  0  0  0
 14 15  1  0  0  0  0
 14 16  2  0  0  0  0
 16 17  1  0  0  0  0
 17 18  2  0  0  0  0
 19 20  1  0  0  0  0
  4 21  1  0  0  0  0
  4 22  1  0  0  0  0
  5 23  1  0  0  0  0
  5 24  1  0  0  0  0
  6 25  1  0  0  0  0
 10 26  1  0  0  0  0
 10 27  1  0  0  0  0
 13 28  1  0  0  0  0
 15 29  1  0  0  0  0
 16 30  1  0  0  0  0
 17 31  1  0  0  0  0
 18 32  1  0  0  0  0
 19 33  1  0  0  0  0
 19 34  1  0  0  0  0
 20 35  1  0  0  0  0
 20 36  1  0  0  0  0
M  END
> <BIOSOLVEIT.HYDE_ATOM_SCORES [kJ/mol]>
# Atom-ID; Total; Rec-Desolv; Rec-IA; Lig-Desolv; Lig-IA
1;-0.0675;0.0000;0.0000;-0.0675;0.0000
2;-11.0433;8.7503;-19.1900;3.2055;-3.8091
3;-6.1046;24.5141;-28.3611;2.8663;-5.1240
4;-3.8029;6.4384;-8.4288;10.3779;-12.1905
5;-2.8043;-1.3053;0.0000;-1.4990;0.0000
6;-0.8963;0.0000;0.0000;-0.8963;0.0000
7;0.0000;0.0000;0.0000;0.0000;0.0000
8;-0.2395;0.0000;0.0000;-0.2395;0.0000
9;-4.7675;3.8003;-8.4288;10.2612;-10.4002
10;-0.7010;0.3588;0.0000;-1.0598;0.0000
11;0.0000;0.0000;0.0000;0.0000;0.0000
12;-1.4654;-1.2019;0.0000;-0.2635;0.0000
13;-2.5318;-1.1657;0.0000;-1.3661;0.0000
14;-0.6431;-0.2989;0.0000;-0.3442;0.0000
15;-2.7758;6.6959;-8.2369;3.7846;-5.0194
16;-0.4121;-0.0746;0.0000;-0.3375;0.0000
17;-0.7380;-0.4653;0.0000;-0.2727;0.0000
18;-0.3539;0.0000;0.0000;-0.3539;0.0000
19;0.0000;0.0000;0.0000;0.0000;0.0000
20;-0.8715;-0.0319;0.0000;-0.8397;0.0000

> <BIOSOLVEIT.HYDE_ESTIMATED_AFFINITY_LOWER_BOUNDARY [nM]>
6.272153

> <BIOSOLVEIT.HYDE_ESTIMATED_AFFINITY_UPPER_BOUNDARY [nM]>
623.175520

> <BIOSOLVEIT.HYDE_LIGAND_EFFICIENCY>
0.504279

> <BIOSOLVEIT.HYDE_LIGAND_LIPOPHILIC_EFFICIENCY>
6.892986

> <BIOSOLVEIT.INTER_CLASH range: 0=green, 1=yellow, 2=red>
0

> <BIOSOLVEIT.INTRA_CLASH range: 0=green, 1=yellow, 2=red>
1

> <BIOSOLVEIT.LOGP>
0.311

> <BIOSOLVEIT.MOLECULAR_WEIGHT>
300.332

> <BIOSOLVEIT.MOLECULE_CHECKSUM>
LTQxLjEyMDQ7MC41MDQyNzk=

> <BIOSOLVEIT.TORSION_QUALITY range: 0=green/not rotatable, 1=yellow, 2=red>
0

> <BIOSOLVEIT.TPSA>
109.93

> <cleaned_smiles (canonical SMILES)>
NS(=O)(=O)CC1CCN1C(=O)COc1cc(O)ccc1

> <BIOSOLVEIT.OPTIBRIUM.2C9 pKi>
4.22145

> <BIOSOLVEIT.OPTIBRIUM.2D6 affinity category>
low

> <BIOSOLVEIT.OPTIBRIUM.BBB category>
-

> <BIOSOLVEIT.OPTIBRIUM.BBB log([brain]:[blood])>
-1.03072

> <BIOSOLVEIT.OPTIBRIUM.hERG pIC50>
4.64728

> <BIOSOLVEIT.OPTIBRIUM.HIA category>
+

> <BIOSOLVEIT.OPTIBRIUM.logD>
0.0208404

> <BIOSOLVEIT.OPTIBRIUM.logP>
0.0208404

> <BIOSOLVEIT.OPTIBRIUM.logS @ pH7.4>
4.41406

> <BIOSOLVEIT.OPTIBRIUM.logS>
4.41406

> <BIOSOLVEIT.OPTIBRIUM.P-gp category>
no

> <BIOSOLVEIT.OPTIBRIUM.PPB90 category>
low

$$$$
no name_1_003
phSeeSAR  05142510573D 1   1.00000     0.00000     0
SeeSAR 14.1.2 pham.congdat
 30 31  0  0  0  0            999 V2000
    3.2917    4.5077   10.2541 Cl  0  0  0  0  0  0  0  0  0  0  0  0
    3.4338    2.8133    9.7279 C   0  0  0  0  0  0  0  0  0  0  0  0
    4.1878    1.9579   10.4348 N   0  0  0  0  0  0  0  0  0  0  0  0
    4.3190    0.6739   10.0688 C   0  0  0  0  0  0  0  0  0  0  0  0
    3.6566    0.2250    8.9308 C   0  0  0  0  0  0  0  0  0  0  0  0
    2.9013    1.0754    8.2200 N   0  0  0  0  0  0  0  0  0  0  0  0
    2.7731    2.3588    8.5902 C   0  0  0  0  0  0  0  0  0  0  0  0
    1.9171    3.3229    7.7847 C   0  0  0  0  0  0  0  0  0  0  0  0
    0.5824    3.4191    8.3932 N   0  0  0  0  0  0  0  0  0  0  0  0
   -0.3732    2.5803    8.0277 C   0  0  0  0  0  0  0  0  0  0  0  0
   -0.1440    1.7165    7.1754 O   0  0  0  0  0  0  0  0  0  0  0  0
   -1.7533    2.6797    8.6570 C   0  0  0  0  0  0  0  0  0  0  0  0
   -1.7711    1.9279    9.9202 N   0  0  0  0  0  0  0  0  0  0  0  0
   -2.9740    0.8388    9.9330 S   0  0  0  0  0  0  0  0  0  0  0  0
   -4.2528    1.4215   10.2489 O   0  0  0  0  0  0  0  0  0  0  0  0
   -3.0380    0.0661    8.7197 O   0  0  0  0  0  0  0  0  0  0  0  0
   -2.3242   -0.1136   11.2280 C   0  0  0  0  0  0  0  0  0  0  0  0
   -1.0205    0.1120   11.1805 C   0  0  0  0  0  0  0  0  0  0  0  0
   -0.5966    1.0653   10.0805 C   0  0  0  0  0  0  0  0  0  0  0  0
    4.9243    0.0048   10.6440 H   0  0  0  0  0  0  0  0  0  0  0  0
    3.7495   -0.7957    8.6233 H   0  0  0  0  0  0  0  0  0  0  0  0
    1.8262    2.9654    6.7802 H   0  0  0  0  0  0  0  0  0  0  0  0
    2.3770    4.2890    7.7792 H   0  0  0  0  0  0  0  0  0  0  0  0
    0.3968    4.1185    9.0835 H   0  0  0  0  0  0  0  0  0  0  0  0
   -2.4807    2.2700    7.9879 H   0  0  0  0  0  0  0  0  0  0  0  0
   -1.9842    3.7065    8.8499 H   0  0  0  0  0  0  0  0  0  0  0  0
   -2.8566   -0.7418   11.9113 H   0  0  0  0  0  0  0  0  0  0  0  0
   -0.3267   -0.3390   11.8590 H   0  0  0  0  0  0  0  0  0  0  0  0
    0.2609    1.6341   10.3740 H   0  0  0  0  0  0  0  0  0  0  0  0
   -0.3813    0.5367    9.1755 H   0  0  0  0  0  0  0  0  0  0  0  0
  1  2  1  0  0  0  0
  2  3  2  0  0  0  0
  2  7  1  0  0  0  0
  3  4  1  0  0  0  0
  4  5  2  0  0  0  0
  5  6  1  0  0  0  0
  6  7  2  0  0  0  0
  7  8  1  0  0  0  0
  8  9  1  0  0  0  0
  9 10  1  0  0  0  0
 10 11  2  0  0  0  0
 10 12  1  0  0  0  0
 12 13  1  0  0  0  0
 13 14  1  0  0  0  0
 13 19  1  0  0  0  0
 14 15  2  0  0  0  0
 14 16  2  0  0  0  0
 14 17  1  0  0  0  0
 17 18  2  0  0  0  0
 18 19  1  0  0  0  0
  4 20  1  0  0  0  0
  5 21  1  0  0  0  0
  8 22  1  0  0  0  0
  8 23  1  0  0  0  0
  9 24  1  0  0  0  0
 12 25  1  0  0  0  0
 12 26  1  0  0  0  0
 17 27  1  0  0  0  0
 18 28  1  0  0  0  0
 19 29  1  0  0  0  0
 19 30  1  0  0  0  0
M  END
> <BIOSOLVEIT.HYDE_ATOM_SCORES [kJ/mol]>
# Atom-ID; Total; Rec-Desolv; Rec-IA; Lig-Desolv; Lig-IA
1;-0.3033;0.0000;0.0000;-0.3033;0.0000
2;0.0000;0.0000;0.0000;0.0000;0.0000
3;0.0000;0.0000;0.0000;0.0000;0.0000
4;0.0000;0.0000;0.0000;0.0000;0.0000
5;0.0000;0.0000;0.0000;0.0000;0.0000
6;0.0000;0.0000;0.0000;0.0000;0.0000
7;0.0000;0.0000;0.0000;0.0000;0.0000
8;-0.0396;0.0000;0.0000;-0.0396;0.0000
9;-2.9202;8.1401;-9.6218;6.9898;-8.4283
10;-0.1601;0.0000;0.0000;-0.1601;0.0000
11;-3.1661;8.8878;-12.3964;1.6318;-1.2893
12;-2.9673;-1.0395;0.0000;-1.9278;0.0000
13;-4.1790;6.0775;-8.4287;10.3626;-12.1904
14;-0.0921;0.0000;0.0000;-0.0921;0.0000
15;-5.3758;24.6582;-27.6856;2.7478;-5.0962
16;-3.4087;8.2688;-12.3564;3.1316;-2.4527
17;-1.1144;0.0000;0.0000;-1.1144;0.0000
18;-0.2236;0.0000;0.0000;-0.2236;0.0000
19;-0.1997;0.0000;0.0000;-0.1997;0.0000

> <BIOSOLVEIT.HYDE_ESTIMATED_AFFINITY_LOWER_BOUNDARY [nM]>
4291.433459

> <BIOSOLVEIT.HYDE_ESTIMATED_AFFINITY_UPPER_BOUNDARY [nM]>
426379.287068

> <BIOSOLVEIT.HYDE_LIGAND_EFFICIENCY>
0.321912

> <BIOSOLVEIT.HYDE_LIGAND_LIPOPHILIC_EFFICIENCY>
3.812901

> <BIOSOLVEIT.INTER_CLASH range: 0=green, 1=yellow, 2=red>
0

> <BIOSOLVEIT.INTRA_CLASH range: 0=green, 1=yellow, 2=red>
0

> <BIOSOLVEIT.LOGP>
0.5559

> <BIOSOLVEIT.MOLECULAR_WEIGHT>
302.74

> <BIOSOLVEIT.MOLECULE_CHECKSUM>
LTI0LjkzNzI7MC4zMjE5MTI=

> <BIOSOLVEIT.TORSION_QUALITY range: 0=green/not rotatable, 1=yellow, 2=red>
1

> <BIOSOLVEIT.TPSA>
92.26

> <cleaned_smiles (canonical SMILES)>
O=C(CN1CC=CS1(=O)=O)NCc1[n]cc[n]c1Cl

> <BIOSOLVEIT.OPTIBRIUM.2C9 pKi>
4.4619

> <BIOSOLVEIT.OPTIBRIUM.2D6 affinity category>
low

> <BIOSOLVEIT.OPTIBRIUM.BBB category>
-

> <BIOSOLVEIT.OPTIBRIUM.BBB log([brain]:[blood])>
-0.688164

> <BIOSOLVEIT.OPTIBRIUM.hERG pIC50>
4.24128

> <BIOSOLVEIT.OPTIBRIUM.HIA category>
+

> <BIOSOLVEIT.OPTIBRIUM.logD>
0.968361

> <BIOSOLVEIT.OPTIBRIUM.logP>
0.968361

> <BIOSOLVEIT.OPTIBRIUM.logS @ pH7.4>
2.84881

> <BIOSOLVEIT.OPTIBRIUM.logS>
2.84881

> <BIOSOLVEIT.OPTIBRIUM.P-gp category>
no

> <BIOSOLVEIT.OPTIBRIUM.PPB90 category>
low

$$$$
no name_1_008
phSeeSAR  05142510573D 1   1.00000     0.00000     0
SeeSAR 14.1.2 pham.congdat
 37 38  0  0  0  0            999 V2000
    3.0541   -2.6171    9.5821 O   0  0  0  0  0  0  0  0  0  0  0  0
    1.8503   -2.7130    9.8405 C   0  0  0  0  0  0  0  0  0  0  0  0
    1.0352   -1.7044    9.5784 N   0  0  0  0  0  0  0  0  0  0  0  0
    1.5625   -0.4697    8.9796 C   0  0  0  0  0  0  0  0  0  0  0  0
    0.4077    0.3905    8.4926 C   0  0  0  0  0  0  0  0  0  0  0  0
   -0.2045    0.0788    7.4662 O   0  0  0  0  0  0  0  0  0  0  0  0
    0.0586    1.4731    9.1682 N   0  0  0  0  0  0  0  0  0  0  0  0
   -1.0582    2.3049    8.6972 C   0  0  0  0  0  0  0  0  0  0  0  0
   -2.3717    1.7022    9.1664 C   0  0  0  0  0  0  0  0  0  0  0  0
   -3.2161    2.2515   10.0101 N   0  0  0  0  0  0  0  0  0  0  0  0
   -4.2607    1.3878   10.1639 N   0  0  0  0  0  0  0  0  0  0  0  0
   -4.0174    0.2943    9.3813 N   0  0  0  0  0  0  0  0  0  0  0  0
   -2.8831    0.4736    8.7782 N   0  5  0  0  0  0  0  0  0  0  0  0
    1.3052   -3.9895   10.4598 C   0  0  2  0  0  0  0  0  0  0  0  0
    0.4537   -4.6412    9.5287 O   0  0  0  0  0  0  0  0  0  0  0  0
    0.5174   -3.6480   11.7140 C   0  0  0  0  0  0  0  0  0  0  0  0
    1.4666   -3.5459   12.8963 C   0  0  0  0  0  0  0  0  0  0  0  0
    2.0002   -2.3085   13.2402 C   0  0  0  0  0  0  0  0  0  0  0  0
    2.8687   -2.2222   14.3231 C   0  0  0  0  0  0  0  0  0  0  0  0
    3.1994   -3.3583   15.0530 C   0  0  0  0  0  0  0  0  0  0  0  0
    2.6610   -4.5922   14.7014 C   0  0  0  0  0  0  0  0  0  0  0  0
    1.7915   -4.6887   13.6200 C   0  0  0  0  0  0  0  0  0  0  0  0
    0.0604   -1.7819    9.7876 H   0  0  0  0  0  0  0  0  0  0  0  0
    2.1966   -0.7164    8.1538 H   0  0  0  0  0  0  0  0  0  0  0  0
    2.1250    0.0702    9.7124 H   0  0  0  0  0  0  0  0  0  0  0  0
    0.5543    1.7254    9.9992 H   0  0  0  0  0  0  0  0  0  0  0  0
   -1.0463    2.3458    7.6280 H   0  0  0  0  0  0  0  0  0  0  0  0
   -0.9579    3.2939    9.0931 H   0  0  0  0  0  0  0  0  0  0  0  0
    2.1176   -4.6376   10.7143 H   0  0  0  0  0  0  0  0  0  0  0  0
    0.8802   -4.6326    8.6243 H   0  0  0  0  0  0  0  0  0  0  0  0
   -0.2047   -4.4150   11.9016 H   0  0  0  0  0  0  0  0  0  0  0  0
    0.0166   -2.7124   11.5769 H   0  0  0  0  0  0  0  0  0  0  0  0
    1.7457   -1.4339   12.6788 H   0  0  0  0  0  0  0  0  0  0  0  0
    3.2850   -1.2752   14.5961 H   0  0  0  0  0  0  0  0  0  0  0  0
    3.8680   -3.2838   15.8852 H   0  0  0  0  0  0  0  0  0  0  0  0
    2.9159   -5.4667   15.2628 H   0  0  0  0  0  0  0  0  0  0  0  0
    1.3752   -5.6358   13.3466 H   0  0  0  0  0  0  0  0  0  0  0  0
  1  2  2  0  0  0  0
  2  3  1  0  0  0  0
  2 14  1  0  0  0  0
  3  4  1  0  0  0  0
  4  5  1  0  0  0  0
  5  6  2  0  0  0  0
  5  7  1  0  0  0  0
  7  8  1  0  0  0  0
  8  9  1  0  0  0  0
  9 10  2  0  0  0  0
  9 13  1  0  0  0  0
 10 11  1  0  0  0  0
 11 12  2  0  0  0  0
 12 13  1  0  0  0  0
 14 15  1  0  0  0  0
 14 16  1  0  0  0  0
 16 17  1  0  0  0  0
 17 18  2  0  0  0  0
 17 22  1  0  0  0  0
 18 19  1  0  0  0  0
 19 20  2  0  0  0  0
 20 21  1  0  0  0  0
 21 22  2  0  0  0  0
  3 23  1  0  0  0  0
  4 24  1  0  0  0  0
  4 25  1  0  0  0  0
  7 26  1  0  0  0  0
  8 27  1  0  0  0  0
  8 28  1  0  0  0  0
 22 37  1  0  0  0  0
 14 29  1  0  0  0  0
 15 30  1  0  0  0  0
 16 31  1  0  0  0  0
 16 32  1  0  0  0  0
 18 33  1  0  0  0  0
 19 34  1  0  0  0  0
 20 35  1  0  0  0  0
 21 36  1  0  0  0  0
M  CHG  1  13  -1
M  END
> <BIOSOLVEIT.HYDE_ATOM_SCORES [kJ/mol]>
# Atom-ID; Total; Rec-Desolv; Rec-IA; Lig-Desolv; Lig-IA
1;7.8412;6.1552;0.0000;1.6860;0.0000
2;0.0000;0.0000;0.0000;0.0000;0.0000
3;1.0156;0.0000;0.0000;1.0156;0.0000
4;0.0000;0.0000;0.0000;0.0000;0.0000
5;0.0000;0.0000;0.0000;0.0000;0.0000
6;-10.7188;9.7641;-19.9981;9.9150;-10.3999
7;0.0000;0.0000;0.0000;0.0000;0.0000
8;-1.6227;-0.3933;0.0000;-1.2294;0.0000
9;-0.2194;0.0000;0.0000;-0.2194;0.0000
10;11.0489;7.9565;-1.8226;6.7374;-1.8226
11;-3.3304;6.4708;-8.2610;6.7208;-8.2610
12;-2.3830;6.5213;-7.8169;6.7295;-7.8169
13;-11.0969;10.0000;-19.6475;6.8312;-8.2807
14;-0.5816;0.0000;0.0000;-0.5816;0.0000
15;-6.0657;3.9790;-9.4835;8.9223;-9.4835
16;-0.5474;0.0000;0.0000;-0.5474;0.0000
17;0.0000;0.0000;0.0000;0.0000;0.0000
18;0.0000;0.0000;0.0000;0.0000;0.0000
19;0.0000;0.0000;0.0000;0.0000;0.0000
20;0.3949;0.7976;0.0000;-0.4027;0.0000
21;-1.6850;-0.8005;0.0000;-0.8845;0.0000
22;-0.6944;0.0000;0.0000;-0.6944;0.0000

> <BIOSOLVEIT.HYDE_ESTIMATED_AFFINITY_LOWER_BOUNDARY [nM]>
41863.269045

> <BIOSOLVEIT.HYDE_ESTIMATED_AFFINITY_UPPER_BOUNDARY [nM]>
4159363.294836

> <BIOSOLVEIT.HYDE_LIGAND_EFFICIENCY>
0.215064

> <BIOSOLVEIT.HYDE_LIGAND_LIPOPHILIC_EFFICIENCY>
4.445470

> <BIOSOLVEIT.INTER_CLASH range: 0=green, 1=yellow, 2=red>
0

> <BIOSOLVEIT.INTRA_CLASH range: 0=green, 1=yellow, 2=red>
0

> <BIOSOLVEIT.LOGP>
-1.0659

> <BIOSOLVEIT.MOLECULAR_WEIGHT>
303.301

> <BIOSOLVEIT.MOLECULE_CHECKSUM>
LTE5LjI5MDY7MC4yMTUwNjQ=

> <BIOSOLVEIT.TORSION_QUALITY range: 0=green/not rotatable, 1=yellow, 2=red>
1

> <BIOSOLVEIT.TPSA>
131.2

> <cleaned_smiles (canonical SMILES)>
OC(Cc1ccccc1)C(=O)NCC(=O)NCc1[nH][n][n][n]1

$$$$
no name_1_009
phSeeSAR  05142510573D 1   1.00000     0.00000     0
SeeSAR 14.1.2 pham.congdat
 37 38  0  0  0  0            999 V2000
   -1.3961   -4.4000   18.4411 O   0  0  0  0  0  0  0  0  0  0  0  0
   -1.0019   -5.4857   18.8781 C   0  0  0  0  0  0  0  0  0  0  0  0
   -1.4701   -5.9460   20.0267 N   0  0  0  0  0  0  0  0  0  0  0  0
   -2.4596   -5.1649   20.7829 C   0  0  0  0  0  0  0  0  0  0  0  0
   -3.8207   -5.2923   20.1183 C   0  0  0  0  0  0  0  0  0  0  0  0
   -4.7206   -5.9318   20.6719 O   0  0  0  0  0  0  0  0  0  0  0  0
   -4.0413   -4.7182   18.9471 N   0  0  0  0  0  0  0  0  0  0  0  0
   -5.3577   -4.8414   18.3044 C   0  0  0  0  0  0  0  0  0  0  0  0
   -5.2248   -4.5529   16.8181 C   0  0  0  0  0  0  0  0  0  0  0  0
   -4.1797   -4.0217   16.2248 N   0  0  0  0  0  0  0  0  0  0  0  0
   -4.4669   -3.9312   14.8943 N   0  0  0  0  0  0  0  0  0  0  0  0
   -5.7258   -4.4277   14.7040 N   0  0  0  0  0  0  0  0  0  0  0  0
   -6.1903   -4.8032   15.8554 N   0  5  0  0  0  0  0  0  0  0  0  0
    0.0214   -6.2933   18.0962 C   0  0  2  0  0  0  0  0  0  0  0  0
    0.2246   -7.5452   18.7351 O   0  0  0  0  0  0  0  0  0  0  0  0
    1.3357   -5.5316   18.0445 C   0  0  0  0  0  0  0  0  0  0  0  0
    1.2751   -4.4915   16.9384 C   0  0  0  0  0  0  0  0  0  0  0  0
    1.3789   -3.1428   17.2612 C   0  0  0  0  0  0  0  0  0  0  0  0
    1.3223   -2.1959   16.2441 C   0  0  0  0  0  0  0  0  0  0  0  0
    1.1641   -2.5922   14.9209 C   0  0  0  0  0  0  0  0  0  0  0  0
    1.0607   -3.9439   14.6073 C   0  0  0  0  0  0  0  0  0  0  0  0
    1.1162   -4.8982   15.6175 C   0  0  0  0  0  0  0  0  0  0  0  0
   -1.1509   -6.8252   20.3805 H   0  0  0  0  0  0  0  0  0  0  0  0
   -2.1653   -4.1363   20.7989 H   0  0  0  0  0  0  0  0  0  0  0  0
   -2.5160   -5.5353   21.7851 H   0  0  0  0  0  0  0  0  0  0  0  0
   -3.3126   -4.2005   18.4989 H   0  0  0  0  0  0  0  0  0  0  0  0
   -6.0363   -4.1410   18.7444 H   0  0  0  0  0  0  0  0  0  0  0  0
   -5.7307   -5.8347   18.4429 H   0  0  0  0  0  0  0  0  0  0  0  0
   -0.3367   -6.4548   17.1010 H   0  0  0  0  0  0  0  0  0  0  0  0
   -0.5724   -8.1299   18.5838 H   0  0  0  0  0  0  0  0  0  0  0  0
    2.1360   -6.2142   17.8488 H   0  0  0  0  0  0  0  0  0  0  0  0
    1.5031   -5.0451   18.9828 H   0  0  0  0  0  0  0  0  0  0  0  0
    1.5009   -2.8373   18.2794 H   0  0  0  0  0  0  0  0  0  0  0  0
    1.4011   -1.1555   16.4815 H   0  0  0  0  0  0  0  0  0  0  0  0
    1.1218   -1.8579   14.1438 H   0  0  0  0  0  0  0  0  0  0  0  0
    0.9385   -4.2490   13.5890 H   0  0  0  0  0  0  0  0  0  0  0  0
    1.0372   -5.9386   15.3803 H   0  0  0  0  0  0  0  0  0  0  0  0
  1  2  2  0  0  0  0
  2  3  1  0  0  0  0
  2 14  1  0  0  0  0
  3  4  1  0  0  0  0
  4  5  1  0  0  0  0
  5  6  2  0  0  0  0
  5  7  1  0  0  0  0
  7  8  1  0  0  0  0
  8  9  1  0  0  0  0
  9 10  2  0  0  0  0
  9 13  1  0  0  0  0
 10 11  1  0  0  0  0
 11 12  2  0  0  0  0
 12 13  1  0  0  0  0
 14 15  1  0  0  0  0
 14 16  1  0  0  0  0
 16 17  1  0  0  0  0
 17 18  2  0  0  0  0
 17 22  1  0  0  0  0
 18 19  1  0  0  0  0
 19 20  2  0  0  0  0
 20 21  1  0  0  0  0
 21 22  2  0  0  0  0
  3 23  1  0  0  0  0
  4 24  1  0  0  0  0
  4 25  1  0  0  0  0
  7 26  1  0  0  0  0
  8 27  1  0  0  0  0
  8 28  1  0  0  0  0
 22 37  1  0  0  0  0
 14 29  1  0  0  0  0
 15 30  1  0  0  0  0
 16 31  1  0  0  0  0
 16 32  1  0  0  0  0
 18 33  1  0  0  0  0
 19 34  1  0  0  0  0
 20 35  1  0  0  0  0
 21 36  1  0  0  0  0
M  CHG  1  13  -1
M  END
> <BIOSOLVEIT.HYDE_ATOM_SCORES [kJ/mol]>
# Atom-ID; Total; Rec-Desolv; Rec-IA; Lig-Desolv; Lig-IA
1;0.0000;0.0000;0.0000;0.0000;0.0000
2;-2.0657;-1.6638;0.0000;-0.4019;0.0000
3;0.8147;0.0000;0.0000;0.8147;0.0000
4;-0.1856;0.0000;0.0000;-0.1856;0.0000
5;-0.3349;0.0000;0.0000;-0.3349;0.0000
6;-4.0528;6.6519;-9.6223;9.3177;-10.4001
7;0.0000;0.0000;0.0000;0.0000;0.0000
8;-1.1540;-0.1354;0.0000;-1.0187;0.0000
9;-0.4069;0.0000;0.0000;-0.4069;0.0000
10;-0.5437;-0.4363;0.0000;-0.1074;0.0000
11;-0.1049;0.0000;0.0000;-0.1049;0.0000
12;-4.2226;5.7797;-8.4285;6.8547;-8.4285
13;1.6061;-1.5156;0.0000;3.1217;0.0000
14;-0.7651;0.0000;0.0000;-0.7651;0.0000
15;-0.6424;10.5698;-10.6157;8.8758;-9.4723
16;-1.3766;-0.3409;0.0000;-1.0357;0.0000
17;0.0000;0.0000;0.0000;0.0000;0.0000
18;0.0000;0.0000;0.0000;0.0000;0.0000
19;0.0000;0.0000;0.0000;0.0000;0.0000
20;0.0000;0.0000;0.0000;0.0000;0.0000
21;0.0000;0.0000;0.0000;0.0000;0.0000
22;-1.3649;-0.7689;0.0000;-0.5960;0.0000

> <BIOSOLVEIT.HYDE_ESTIMATED_AFFINITY_LOWER_BOUNDARY [nM]>
256269.110106

> <BIOSOLVEIT.HYDE_ESTIMATED_AFFINITY_UPPER_BOUNDARY [nM]>
25461851.271883

> <BIOSOLVEIT.HYDE_LIGAND_EFFICIENCY>
0.164990

> <BIOSOLVEIT.HYDE_LIGAND_LIPOPHILIC_EFFICIENCY>
3.658607

> <BIOSOLVEIT.INTER_CLASH range: 0=green, 1=yellow, 2=red>
0

> <BIOSOLVEIT.INTRA_CLASH range: 0=green, 1=yellow, 2=red>
0

> <BIOSOLVEIT.LOGP>
-1.0659

> <BIOSOLVEIT.MOLECULAR_WEIGHT>
303.301

> <BIOSOLVEIT.MOLECULE_CHECKSUM>
LTE0Ljc5OTI7MC4xNjQ5OQ==

> <BIOSOLVEIT.TORSION_QUALITY range: 0=green/not rotatable, 1=yellow, 2=red>
0

> <BIOSOLVEIT.TPSA>
131.2

> <cleaned_smiles (canonical SMILES)>
OC(Cc1ccccc1)C(=O)NCC(=O)NCc1[nH][n][n][n]1

$$$$
no name_1_010
phSeeSAR  05142510573D 1   1.00000     0.00000     0
SeeSAR 14.1.2 pham.congdat
 45 46  0  0  0  0            999 V2000
   -6.4032   -4.6008   15.3550 O   0  0  0  0  0  0  0  0  0  0  0  0
   -5.7750   -4.4417   16.4063 C   0  0  0  0  0  0  0  0  0  0  0  0
   -4.4656   -4.2554   16.3729 N   0  0  0  0  0  0  0  0  0  0  0  0
   -3.7583   -4.2376   15.0842 C   0  0  1  0  0  0  0  0  0  0  0  0
   -4.1824   -3.0128   14.2903 C   0  0  0  0  0  0  0  0  0  0  0  0
   -3.5264   -1.8191   14.8433 N   0  0  0  0  0  0  0  0  0  0  0  0
   -2.4657   -1.1823   14.1172 C   0  0  0  0  0  0  0  0  0  0  0  0
   -2.5141   -1.1451   12.7278 C   0  0  0  0  0  0  0  0  0  0  0  0
   -1.4822   -0.5266   12.0299 C   0  0  0  0  0  0  0  0  0  0  0  0
   -0.4157    0.0478   12.7123 C   0  0  0  0  0  0  0  0  0  0  0  0
   -0.3755    0.0055   14.1024 C   0  0  0  0  0  0  0  0  0  0  0  0
   -1.4027   -0.6108   14.8092 C   0  0  0  0  0  0  0  0  0  0  0  0
   -3.9574   -1.2781   16.1404 C   0  0  0  0  0  0  0  0  0  0  0  0
   -2.2591   -4.1884   15.3297 C   0  0  0  0  0  0  0  0  0  0  0  0
   -6.5062   -4.4599   17.7387 C   0  0  2  0  0  0  0  0  0  0  0  0
   -7.9569   -4.4725   17.5015 N   0  3  0  0  0  0  0  0  0  0  0  0
   -6.1343   -3.2215   18.5379 C   0  0  0  0  0  0  0  0  0  0  0  0
   -5.1431   -3.5789   19.5618 N   0  0  0  0  0  0  0  0  0  0  0  0
   -5.1806   -4.6889   20.3513 N   0  0  0  0  0  0  0  0  0  0  0  0
   -4.1436   -4.6553   21.1230 N   0  0  0  0  0  0  0  0  0  0  0  0
   -3.3828   -3.5285   20.8755 C   0  0  0  0  0  0  0  0  0  0  0  0
   -4.0173   -2.8445   19.8827 C   0  0  0  0  0  0  0  0  0  0  0  0
   -3.9570   -4.1265   17.2243 H   0  0  0  0  0  0  0  0  0  0  0  0
   -4.0005   -5.1217   14.5324 H   0  0  0  0  0  0  0  0  0  0  0  0
   -5.2443   -2.8973   14.3527 H   0  0  0  0  0  0  0  0  0  0  0  0
   -3.8966   -3.1347   13.2665 H   0  0  0  0  0  0  0  0  0  0  0  0
   -3.3349   -1.5868   12.2024 H   0  0  0  0  0  0  0  0  0  0  0  0
   -1.5094   -0.4927   10.9608 H   0  0  0  0  0  0  0  0  0  0  0  0
    0.3742    0.5224   12.1684 H   0  0  0  0  0  0  0  0  0  0  0  0
    0.4455    0.4470   14.6276 H   0  0  0  0  0  0  0  0  0  0  0  0
   -1.3755   -0.6451   15.8783 H   0  0  0  0  0  0  0  0  0  0  0  0
   -3.3714   -0.4153   16.3795 H   0  0  0  0  0  0  0  0  0  0  0  0
   -4.9903   -1.0041   16.0871 H   0  0  0  0  0  0  0  0  0  0  0  0
   -3.8242   -2.0211   16.8988 H   0  0  0  0  0  0  0  0  0  0  0  0
   -1.7444   -4.1754   14.3917 H   0  0  0  0  0  0  0  0  0  0  0  0
   -2.0169   -3.3043   15.8817 H   0  0  0  0  0  0  0  0  0  0  0  0
   -1.9607   -5.0507   15.8885 H   0  0  0  0  0  0  0  0  0  0  0  0
   -6.2269   -5.3354   18.2870 H   0  0  0  0  0  0  0  0  0  0  0  0
   -8.3782   -5.1941   18.0508 H   0  0  0  0  0  0  0  0  0  0  0  0
   -8.3445   -3.5876   17.7597 H   0  0  0  0  0  0  0  0  0  0  0  0
   -7.0089   -2.8262   19.0108 H   0  0  0  0  0  0  0  0  0  0  0  0
   -5.7197   -2.4849   17.8819 H   0  0  0  0  0  0  0  0  0  0  0  0
   -2.4745   -3.2485   21.3668 H   0  0  0  0  0  0  0  0  0  0  0  0
   -3.7058   -1.9218   19.4395 H   0  0  0  0  0  0  0  0  0  0  0  0
   -8.1347   -4.6444   16.5325 H   0  0  0  0  0  0  0  0  0  0  0  0
  1  2  2  0  0  0  0
  2  3  1  0  0  0  0
  2 15  1  0  0  0  0
  3  4  1  0  0  0  0
  4  5  1  0  0  0  0
  4 14  1  0  0  0  0
  5  6  1  0  0  0  0
  6  7  1  0  0  0  0
  6 13  1  0  0  0  0
  7  8  2  0  0  0  0
  7 12  1  0  0  0  0
  8  9  1  0  0  0  0
  9 10  2  0  0  0  0
 10 11  1  0  0  0  0
 11 12  2  0  0  0  0
 15 16  1  0  0  0  0
 15 17  1  0  0  0  0
 17 18  1  0  0  0  0
 18 19  1  0  0  0  0
 18 22  1  0  0  0  0
 19 20  2  0  0  0  0
 20 21  1  0  0  0  0
 21 22  2  0  0  0  0
  3 23  1  0  0  0  0
  4 24  1  0  0  0  0
  5 25  1  0  0  0  0
  5 26  1  0  0  0  0
  8 27  1  0  0  0  0
  9 28  1  0  0  0  0
 10 29  1  0  0  0  0
 11 30  1  0  0  0  0
 12 31  1  0  0  0  0
 13 32  1  0  0  0  0
 13 33  1  0  0  0  0
 13 34  1  0  0  0  0
 14 35  1  0  0  0  0
 14 36  1  0  0  0  0
 14 37  1  0  0  0  0
 15 38  1  0  0  0  0
 16 39  1  0  0  0  0
 16 40  1  0  0  0  0
 17 41  1  0  0  0  0
 17 42  1  0  0  0  0
 21 43  1  0  0  0  0
 22 44  1  0  0  0  0
 16 45  1  0  0  0  0
M  CHG  1  16   1
M  END
> <BIOSOLVEIT.HYDE_ATOM_SCORES [kJ/mol]>
# Atom-ID; Total; Rec-Desolv; Rec-IA; Lig-Desolv; Lig-IA
1;-3.8590;6.0401;-8.3129;8.6710;-10.2572
2;-0.8331;-0.4587;0.0000;-0.3744;0.0000
3;-1.5216;-1.4249;0.0000;-0.0967;0.0000
4;-1.3769;-0.8527;0.0000;-0.5242;0.0000
5;-2.8939;-1.9231;0.0000;-0.9708;0.0000
6;-0.0487;-0.0487;0.0000;0.0000;0.0000
7;-0.2411;-0.0718;0.0000;-0.1692;0.0000
8;-0.5885;0.2112;0.0000;-0.7997;0.0000
9;-0.4219;-0.0920;0.0000;-0.3299;0.0000
10;-1.5428;-1.1987;0.0000;-0.3441;0.0000
11;-0.2278;0.0000;0.0000;-0.2278;0.0000
12;-0.2752;0.0000;0.0000;-0.2752;0.0000
13;0.1402;0.8567;0.0000;-0.7165;0.0000
14;-0.5213;0.0606;0.0000;-0.5819;0.0000
15;-0.8078;-0.3109;0.0000;-0.4969;0.0000
16;-5.5380;16.7511;-20.5690;12.8540;-14.5741
17;-0.1153;0.0000;0.0000;-0.1153;0.0000
18;0.0000;0.0000;0.0000;0.0000;0.0000
19;-2.0628;1.0761;-1.8947;7.0539;-8.2982
20;0.5294;-0.0039;0.0000;0.5333;0.0000
21;0.0000;0.0000;0.0000;0.0000;0.0000
22;0.0000;0.0000;0.0000;0.0000;0.0000

> <BIOSOLVEIT.HYDE_ESTIMATED_AFFINITY_LOWER_BOUNDARY [nM]>
12914.609842

> <BIOSOLVEIT.HYDE_ESTIMATED_AFFINITY_UPPER_BOUNDARY [nM]>
1283142.844993

> <BIOSOLVEIT.HYDE_LIGAND_EFFICIENCY>
0.247566

> <BIOSOLVEIT.HYDE_LIGAND_LIPOPHILIC_EFFICIENCY>
4.360622

> <BIOSOLVEIT.INTER_CLASH range: 0=green, 1=yellow, 2=red>
0

> <BIOSOLVEIT.INTRA_CLASH range: 0=green, 1=yellow, 2=red>
0

> <BIOSOLVEIT.LOGP>
-0.4703

> <BIOSOLVEIT.MOLECULAR_WEIGHT>
303.388

> <BIOSOLVEIT.MOLECULE_CHECKSUM>
LTIyLjIwNjswLjI0NzU2Ng==

> <BIOSOLVEIT.TORSION_QUALITY range: 0=green/not rotatable, 1=yellow, 2=red>
1

> <BIOSOLVEIT.TPSA>
90.69

> <cleaned_smiles (canonical SMILES)>
CN(CC(C)NC(=O)C(N)C[n]1cc[n][n]1)c1ccccc1

> <BIOSOLVEIT.OPTIBRIUM.2C9 pKi>
4.34121

> <BIOSOLVEIT.OPTIBRIUM.2D6 affinity category>
medium

> <BIOSOLVEIT.OPTIBRIUM.BBB category>
-

> <BIOSOLVEIT.OPTIBRIUM.BBB log([brain]:[blood])>
-0.46671

> <BIOSOLVEIT.OPTIBRIUM.hERG pIC50>
4.31781

> <BIOSOLVEIT.OPTIBRIUM.HIA category>
+

> <BIOSOLVEIT.OPTIBRIUM.logD>
-0.424031

> <BIOSOLVEIT.OPTIBRIUM.logP>
0.78407

> <BIOSOLVEIT.OPTIBRIUM.logS @ pH7.4>
3.14212

> <BIOSOLVEIT.OPTIBRIUM.logS>
4.00275

> <BIOSOLVEIT.OPTIBRIUM.P-gp category>
no

> <BIOSOLVEIT.OPTIBRIUM.PPB90 category>
low

$$$$
no name_1_004
phSeeSAR  05142510573D 1   1.00000     0.00000     0
SeeSAR 14.1.2 pham.congdat
 35 36  0  0  0  0            999 V2000
   -0.9966    1.3874    9.2896 S   0  0  0  0  0  0  0  0  0  0  0  0
   -1.8191    1.4664    8.1101 O   0  0  0  0  0  0  0  0  0  0  0  0
   -0.6409    2.7159    9.7166 O   0  0  0  0  0  0  0  0  0  0  0  0
   -1.8218    0.6372   10.4782 N   0  0  0  0  0  0  0  0  0  0  0  0
   -2.5797   -0.4681   10.1938 C   0  0  0  0  0  0  0  0  0  0  0  0
   -3.0980   -0.5913    9.0796 O   0  0  0  0  0  0  0  0  0  0  0  0
   -2.7782   -1.5183   11.2257 C   0  0  0  0  0  0  0  0  0  0  0  0
   -3.5514   -3.0338   10.9866 S   0  0  0  0  0  0  0  0  0  0  0  0
   -3.3620   -3.5959   12.5983 C   0  0  0  0  0  0  0  0  0  0  0  0
   -2.7115   -2.6371   13.3151 C   0  0  0  0  0  0  0  0  0  0  0  0
   -2.3954   -1.4769   12.5326 C   0  0  0  0  0  0  0  0  0  0  0  0
   -1.7444   -0.3894   13.0659 O   0  0  0  0  0  0  0  0  0  0  0  0
   -1.3615   -0.3914   14.4332 C   0  0  0  0  0  0  0  0  0  0  0  0
   -3.8518   -4.9458   13.0890 C   0  0  0  0  0  0  0  0  0  0  0  0
    0.5066    0.4514    8.9151 C   0  0  0  0  0  0  0  0  0  0  0  0
    0.8515    0.6144    7.4447 C   0  0  0  0  0  0  0  0  0  0  0  0
   -0.0169   -0.0066    6.4314 N   0  0  0  0  0  0  0  0  0  0  0  0
    1.4903    1.9143    7.0495 C   0  0  0  0  0  0  0  0  0  0  0  0
    2.3149    0.6611    7.1065 C   0  0  0  0  0  0  0  0  0  0  0  0
   -1.7748    0.9837   11.4151 H   0  0  0  0  0  0  0  0  0  0  0  0
   -2.4630   -2.7386   14.3509 H   0  0  0  0  0  0  0  0  0  0  0  0
   -0.8710    0.5302   14.6676 H   0  0  0  0  0  0  0  0  0  0  0  0
   -2.2314   -0.4985   15.0471 H   0  0  0  0  0  0  0  0  0  0  0  0
   -0.6937   -1.2073   14.6155 H   0  0  0  0  0  0  0  0  0  0  0  0
   -3.6117   -5.0571   14.1258 H   0  0  0  0  0  0  0  0  0  0  0  0
   -4.9121   -5.0091   12.9597 H   0  0  0  0  0  0  0  0  0  0  0  0
   -3.3771   -5.7231   12.5275 H   0  0  0  0  0  0  0  0  0  0  0  0
    0.3450   -0.5841    9.1309 H   0  0  0  0  0  0  0  0  0  0  0  0
    1.3139    0.8187    9.5136 H   0  0  0  0  0  0  0  0  0  0  0  0
    0.2021    0.3675    5.5303 H   0  0  0  0  0  0  0  0  0  0  0  0
    1.6345    2.6831    7.7796 H   0  0  0  0  0  0  0  0  0  0  0  0
    1.2576    2.3590    6.1045 H   0  0  0  0  0  0  0  0  0  0  0  0
    2.6698    0.2124    6.2021 H   0  0  0  0  0  0  0  0  0  0  0  0
    3.0466    0.5365    7.8773 H   0  0  0  0  0  0  0  0  0  0  0  0
    0.1308   -0.9956    6.4267 H   0  0  0  0  0  0  0  0  0  0  0  0
  1  2  2  0  0  0  0
  1  3  2  0  0  0  0
  1  4  1  0  0  0  0
  1 15  1  0  0  0  0
  4  5  1  0  0  0  0
  5  6  2  0  0  0  0
  5  7  1  0  0  0  0
  7  8  1  0  0  0  0
  7 11  2  0  0  0  0
  8  9  1  0  0  0  0
  9 10  2  0  0  0  0
  9 14  1  0  0  0  0
 10 11  1  0  0  0  0
 11 12  1  0  0  0  0
 12 13  1  0  0  0  0
 15 16  1  0  0  0  0
 16 17  1  0  0  0  0
 16 18  1  0  0  0  0
 16 19  1  0  0  0  0
 18 19  1  0  0  0  0
  4 20  1  0  0  0  0
 10 21  1  0  0  0  0
 13 22  1  0  0  0  0
 13 23  1  0  0  0  0
 13 24  1  0  0  0  0
 14 25  1  0  0  0  0
 14 26  1  0  0  0  0
 14 27  1  0  0  0  0
 15 28  1  0  0  0  0
 15 29  1  0  0  0  0
 17 35  1  0  0  0  0
 17 30  1  0  0  0  0
 18 31  1  0  0  0  0
 18 32  1  0  0  0  0
 19 33  1  0  0  0  0
 19 34  1  0  0  0  0
M  END
> <BIOSOLVEIT.HYDE_ATOM_SCORES [kJ/mol]>
# Atom-ID; Total; Rec-Desolv; Rec-IA; Lig-Desolv; Lig-IA
1;0.0000;0.0000;0.0000;0.0000;0.0000
2;-11.2900;8.9976;-19.9987;3.6808;-3.9696
3;-2.3297;7.0071;-8.2149;2.7470;-3.8689
4;-0.1732;0.0000;0.0000;-0.1732;0.0000
5;-0.2313;0.0000;0.0000;-0.2313;0.0000
6;0.1410;17.0186;-16.0340;10.3473;-11.1909
7;4.0026;4.3552;0.0000;-0.3525;0.0000
8;-4.7896;5.9682;-8.4284;-1.1332;-1.1962
9;-0.1766;0.0000;0.0000;-0.1766;0.0000
10;-0.2209;0.0000;0.0000;-0.2209;0.0000
11;-0.1694;0.0000;0.0000;-0.1694;0.0000
12;-1.5696;-1.3611;0.0000;-0.2085;0.0000
13;-0.9575;-0.0455;0.0000;-0.9120;0.0000
14;-4.7604;-2.8281;0.0000;-1.9323;0.0000
15;-0.2072;0.0000;0.0000;-0.2072;0.0000
16;0.0000;0.0000;0.0000;0.0000;0.0000
17;-12.5019;8.4995;-19.9987;11.1878;-12.1905
18;-0.6367;0.0000;0.0000;-0.6367;0.0000
19;0.0000;0.0000;0.0000;0.0000;0.0000

> <BIOSOLVEIT.HYDE_ESTIMATED_AFFINITY_LOWER_BOUNDARY [nM]>
46.201258

> <BIOSOLVEIT.HYDE_ESTIMATED_AFFINITY_UPPER_BOUNDARY [nM]>
4590.368169

> <BIOSOLVEIT.HYDE_LIGAND_EFFICIENCY>
0.466918

> <BIOSOLVEIT.HYDE_LIGAND_LIPOPHILIC_EFFICIENCY>
5.070129

> <BIOSOLVEIT.INTER_CLASH range: 0=green, 1=yellow, 2=red>
0

> <BIOSOLVEIT.INTRA_CLASH range: 0=green, 1=yellow, 2=red>
1

> <BIOSOLVEIT.LOGP>
1.26662

> <BIOSOLVEIT.MOLECULAR_WEIGHT>
304.387

> <BIOSOLVEIT.MOLECULE_CHECKSUM>
LTM2LjE3MDI7MC40NjY5MTg=

> <BIOSOLVEIT.TORSION_QUALITY range: 0=green/not rotatable, 1=yellow, 2=red>
0

> <BIOSOLVEIT.TPSA>
98.49

> <cleaned_smiles (canonical SMILES)>
Cc1cc(OC)c([s]1)C(=O)NS(=O)(=O)CC1(N)CC1

> <BIOSOLVEIT.OPTIBRIUM.2C9 pKi>
4.16136

> <BIOSOLVEIT.OPTIBRIUM.2D6 affinity category>
medium

> <BIOSOLVEIT.OPTIBRIUM.BBB category>
-

> <BIOSOLVEIT.OPTIBRIUM.BBB log([brain]:[blood])>
-0.790975

> <BIOSOLVEIT.OPTIBRIUM.hERG pIC50>
4.22803

> <BIOSOLVEIT.OPTIBRIUM.HIA category>
+

> <BIOSOLVEIT.OPTIBRIUM.logD>
-1.10065

> <BIOSOLVEIT.OPTIBRIUM.logP>
0.359693

> <BIOSOLVEIT.OPTIBRIUM.logS @ pH7.4>
4.08542

> <BIOSOLVEIT.OPTIBRIUM.logS>
4.51941

> <BIOSOLVEIT.OPTIBRIUM.P-gp category>
no

> <BIOSOLVEIT.OPTIBRIUM.PPB90 category>
low

$$$$
no name_1_002
phSeeSAR  05142510573D 1   1.00000     0.00000     0
SeeSAR 14.1.2 pham.congdat
 30 31  0  0  0  0            999 V2000
   -2.7166    1.0011    9.8355 S   0  0  0  0  0  0  0  0  0  0  0  0
   -2.0871    0.0402   10.7845 F   0  0  0  0  0  0  0  0  0  0  0  0
   -3.9984    1.4114   10.3477 O   0  0  0  0  0  0  0  0  0  0  0  0
   -2.8925    0.3657    8.5553 O   0  0  0  0  0  0  0  0  0  0  0  0
   -1.7536    2.3095    9.6664 N   0  0  0  0  0  0  0  0  0  0  0  0
   -0.3321    1.9876    9.5597 C   0  0  1  0  0  0  0  0  0  0  0  0
    0.0091    0.6243    8.9660 C   0  0  0  0  0  0  0  0  0  0  0  0
   -0.3210    0.3555    7.8066 O   0  0  0  0  0  0  0  0  0  0  0  0
    0.6587   -0.2700    9.6930 N   0  0  0  0  0  0  0  0  0  0  0  0
    1.0641   -1.5933    9.3114 C   0  0  0  0  0  0  0  0  0  0  0  0
    1.3392   -2.5376   10.2269 N   0  0  0  0  0  0  0  0  0  0  0  0
    1.7193   -3.7809    9.8867 C   0  0  0  0  0  0  0  0  0  0  0  0
    2.0843   -5.0342   11.0920 S   0  0  0  0  0  0  0  0  0  0  0  0
    1.6971   -4.1877   12.6442 C   0  0  0  0  0  0  0  0  0  0  0  0
    1.8316   -4.0987    8.5375 C   0  0  0  0  0  0  0  0  0  0  0  0
    1.5451   -3.1139    7.5981 C   0  0  0  0  0  0  0  0  0  0  0  0
    1.1705   -1.8929    8.0084 N   0  0  0  0  0  0  0  0  0  0  0  0
   -0.2871    3.1218    8.5660 C   0  0  0  0  0  0  0  0  0  0  0  0
   -1.7395    2.8136    8.2906 C   0  0  0  0  0  0  0  0  0  0  0  0
    0.2109    2.1986   10.4572 H   0  0  0  0  0  0  0  0  0  0  0  0
    0.8966    0.0103   10.6230 H   0  0  0  0  0  0  0  0  0  0  0  0
    1.8786   -4.8488   13.4658 H   0  0  0  0  0  0  0  0  0  0  0  0
    2.3157   -3.3201   12.7412 H   0  0  0  0  0  0  0  0  0  0  0  0
    0.6683   -3.8939   12.6433 H   0  0  0  0  0  0  0  0  0  0  0  0
    2.1315   -5.0785    8.2291 H   0  0  0  0  0  0  0  0  0  0  0  0
    1.6233   -3.3291    6.5529 H   0  0  0  0  0  0  0  0  0  0  0  0
    0.3709    2.9678    7.7364 H   0  0  0  0  0  0  0  0  0  0  0  0
   -0.1044    4.0864    8.9917 H   0  0  0  0  0  0  0  0  0  0  0  0
   -2.3607    3.6659    8.1104 H   0  0  0  0  0  0  0  0  0  0  0  0
   -1.9144    2.0782    7.5333 H   0  0  0  0  0  0  0  0  0  0  0  0
  1  2  1  0  0  0  0
  1  3  2  0  0  0  0
  1  4  2  0  0  0  0
  1  5  1  0  0  0  0
  5  6  1  0  0  0  0
  5 19  1  0  0  0  0
  6  7  1  0  0  0  0
  6 18  1  0  0  0  0
  7  8  2  0  0  0  0
  7  9  1  0  0  0  0
  9 10  1  0  0  0  0
 10 11  2  0  0  0  0
 10 17  1  0  0  0  0
 11 12  1  0  0  0  0
 12 13  1  0  0  0  0
 12 15  2  0  0  0  0
 13 14  1  0  0  0  0
 15 16  1  0  0  0  0
 16 17  2  0  0  0  0
 18 19  1  0  0  0  0
  6 20  1  0  0  0  0
  9 21  1  0  0  0  0
 14 22  1  0  0  0  0
 14 23  1  0  0  0  0
 14 24  1  0  0  0  0
 15 25  1  0  0  0  0
 16 26  1  0  0  0  0
 18 27  1  0  0  0  0
 18 28  1  0  0  0  0
 19 29  1  0  0  0  0
 19 30  1  0  0  0  0
M  END
> <BIOSOLVEIT.HYDE_ATOM_SCORES [kJ/mol]>
# Atom-ID; Total; Rec-Desolv; Rec-IA; Lig-Desolv; Lig-IA
1;-0.1627;0.0000;0.0000;-0.1627;0.0000
2;-0.5032;0.0000;0.0000;-0.5032;0.0000
3;-5.1719;23.6744;-26.9730;2.8291;-4.7025
4;-10.5583;8.8286;-18.8048;3.1506;-3.7326
5;-3.7137;6.5432;-8.4288;10.3626;-12.1906
6;-0.2080;0.0000;0.0000;-0.2080;0.0000
7;0.0000;0.0000;0.0000;0.0000;0.0000
8;-10.0785;9.9173;-19.4236;9.5289;-10.1011
9;0.0000;0.0000;0.0000;0.0000;0.0000
10;-0.4613;0.0000;0.0000;-0.4613;0.0000
11;-0.0026;0.0000;0.0000;-0.0026;0.0000
12;1.1568;1.2671;0.0000;-0.1103;0.0000
13;2.4703;3.9302;0.0000;-1.4600;0.0000
14;-0.5000;-0.0869;0.0000;-0.4131;0.0000
15;-3.2704;-1.6629;0.0000;-1.6075;0.0000
16;-2.4137;-1.4425;0.0000;-0.9712;0.0000
17;-3.3128;-3.4431;0.0000;0.1303;0.0000
18;-0.6115;0.1130;0.0000;-0.7246;0.0000
19;-2.4934;-0.6785;0.0000;-1.8149;0.0000

> <BIOSOLVEIT.HYDE_ESTIMATED_AFFINITY_LOWER_BOUNDARY [nM]>
7.769759

> <BIOSOLVEIT.HYDE_ESTIMATED_AFFINITY_UPPER_BOUNDARY [nM]>
771.971490

> <BIOSOLVEIT.HYDE_LIGAND_EFFICIENCY>
0.523968

> <BIOSOLVEIT.HYDE_LIGAND_LIPOPHILIC_EFFICIENCY>
6.034796

> <BIOSOLVEIT.INTER_CLASH range: 0=green, 1=yellow, 2=red>
0

> <BIOSOLVEIT.INTRA_CLASH range: 0=green, 1=yellow, 2=red>
1

> <BIOSOLVEIT.LOGP>
1.0762

> <BIOSOLVEIT.MOLECULAR_WEIGHT>
306.339

> <BIOSOLVEIT.MOLECULE_CHECKSUM>
LTQwLjU4OTY7MC41MjM5Njg=

> <BIOSOLVEIT.TORSION_QUALITY range: 0=green/not rotatable, 1=yellow, 2=red>
1

> <BIOSOLVEIT.TPSA>
92.26

> <cleaned_smiles (canonical SMILES)>
CSc1cc[n]c(NC(=O)C2CCN2S(=O)(=O)F)[n]1

> <BIOSOLVEIT.OPTIBRIUM.2C9 pKi>
4.2803

> <BIOSOLVEIT.OPTIBRIUM.2D6 affinity category>
medium

> <BIOSOLVEIT.OPTIBRIUM.BBB category>
-

> <BIOSOLVEIT.OPTIBRIUM.BBB log([brain]:[blood])>
-0.75932

> <BIOSOLVEIT.OPTIBRIUM.hERG pIC50>
4.36584

> <BIOSOLVEIT.OPTIBRIUM.HIA category>
+

> <BIOSOLVEIT.OPTIBRIUM.logD>
0.465014

> <BIOSOLVEIT.OPTIBRIUM.logP>
0.465014

> <BIOSOLVEIT.OPTIBRIUM.logS @ pH7.4>
3.19821

> <BIOSOLVEIT.OPTIBRIUM.logS>
3.19821

> <BIOSOLVEIT.OPTIBRIUM.P-gp category>
no

> <BIOSOLVEIT.OPTIBRIUM.PPB90 category>
low

$$$$
no name_1_001
phSeeSAR  05142510573D 1   1.00000     0.00000     0
SeeSAR 14.1.2 pham.congdat
 37 39  0  0  0  0            999 V2000
   -5.2077   -4.1231   14.1040 S   0  0  0  0  0  0  0  0  0  0  0  0
   -4.9738   -4.4889   15.7660 C   0  0  0  0  0  0  0  0  0  0  0  0
   -3.6869   -4.4095   16.0195 N   0  0  0  0  0  0  0  0  0  0  0  0
   -2.8768   -4.0707   14.9393 C   0  0  0  0  0  0  0  0  0  0  0  0
   -3.5389   -3.8683   13.7699 C   0  0  0  0  0  0  0  0  0  0  0  0
   -2.9798   -3.5018   12.4451 C   0  0  0  0  0  0  0  0  0  0  0  0
   -3.5924   -3.7953   11.4137 O   0  0  0  0  0  0  0  0  0  0  0  0
   -1.8252   -2.8604   12.3688 N   0  0  0  0  0  0  0  0  0  0  0  0
   -1.2714   -2.4972   11.0565 C   0  0  0  0  0  0  0  0  0  0  0  0
   -0.6511   -1.1123   11.1342 C   0  0  1  0  0  0  0  0  0  0  0  0
    0.6404   -1.1359   11.7282 O   0  0  0  0  0  0  0  0  0  0  0  0
   -0.6481   -0.3483    9.8269 C   0  0  0  0  0  0  0  0  0  0  0  0
   -1.5831    0.6761   10.4293 C   0  0  1  0  0  0  0  0  0  0  0  0
   -2.9627    0.7081    9.7858 C   0  0  0  0  0  0  0  0  0  0  0  0
   -3.0721    0.7005    8.5376 O   0  0  0  0  0  0  0  0  0  0  0  0
   -3.9884    0.7420   10.5045 O   0  5  0  0  0  0  0  0  0  0  0  0
   -1.5624   -0.0729   11.7424 C   0  0  0  0  0  0  0  0  0  0  0  0
   -6.0256   -4.8234   16.6858 N   0  0  0  0  0  0  0  0  0  0  0  0
   -5.7781   -4.7739   18.1379 C   0  0  0  0  0  0  0  0  0  0  0  0
   -4.7420   -3.8322   18.6772 C   0  0  0  0  0  0  0  0  0  0  0  0
   -6.1992   -3.5416   18.8860 C   0  0  0  0  0  0  0  0  0  0  0  0
   -1.8142   -3.9768   15.0233 H   0  0  0  0  0  0  0  0  0  0  0  0
   -1.3292   -2.6228   13.2040 H   0  0  0  0  0  0  0  0  0  0  0  0
   -2.0539   -2.4971   10.3268 H   0  0  0  0  0  0  0  0  0  0  0  0
   -0.5225   -3.2083   10.7762 H   0  0  0  0  0  0  0  0  0  0  0  0
    1.0025   -0.2049   11.7758 H   0  0  0  0  0  0  0  0  0  0  0  0
   -1.0642   -0.8894    9.0029 H   0  0  0  0  0  0  0  0  0  0  0  0
    0.3090    0.0421    9.5503 H   0  0  0  0  0  0  0  0  0  0  0  0
   -1.1393    1.6470   10.5016 H   0  0  0  0  0  0  0  0  0  0  0  0
   -1.1233    0.4741   12.5505 H   0  0  0  0  0  0  0  0  0  0  0  0
   -2.5165   -0.4514   12.0447 H   0  0  0  0  0  0  0  0  0  0  0  0
   -6.9256   -5.0898   16.3407 H   0  0  0  0  0  0  0  0  0  0  0  0
   -5.8871   -5.7000   18.6629 H   0  0  0  0  0  0  0  0  0  0  0  0
   -4.1671   -3.2285   18.0064 H   0  0  0  0  0  0  0  0  0  0  0  0
   -4.1312   -4.1261   19.5051 H   0  0  0  0  0  0  0  0  0  0  0  0
   -6.6276   -3.6287   19.8627 H   0  0  0  0  0  0  0  0  0  0  0  0
   -6.6634   -2.7311   18.3639 H   0  0  0  0  0  0  0  0  0  0  0  0
  1  2  1  0  0  0  0
  1  5  1  0  0  0  0
  2  3  2  0  0  0  0
  2 18  1  0  0  0  0
  3  4  1  0  0  0  0
  4  5  2  0  0  0  0
  5  6  1  0  0  0  0
  6  7  2  0  0  0  0
  6  8  1  0  0  0  0
  8  9  1  0  0  0  0
  9 10  1  0  0  0  0
 10 11  1  0  0  0  0
 10 12  1  0  0  0  0
 10 17  1  0  0  0  0
 12 13  1  0  0  0  0
 13 14  1  0  0  0  0
 13 17  1  0  0  0  0
 14 15  2  0  0  0  0
 14 16  1  0  0  0  0
 18 19  1  0  0  0  0
 19 20  1  0  0  0  0
 19 21  1  0  0  0  0
 20 21  1  0  0  0  0
  4 22  1  0  0  0  0
  8 23  1  0  0  0  0
  9 24  1  0  0  0  0
  9 25  1  0  0  0  0
 11 26  1  0  0  0  0
 12 27  1  0  0  0  0
 12 28  1  0  0  0  0
 13 29  1  0  0  0  0
 21 37  1  0  0  0  0
 17 30  1  0  0  0  0
 17 31  1  0  0  0  0
 18 32  1  0  0  0  0
 19 33  1  0  0  0  0
 20 34  1  0  0  0  0
 20 35  1  0  0  0  0
 21 36  1  0  0  0  0
M  CHG  1  16  -1
M  END
> <BIOSOLVEIT.HYDE_ATOM_SCORES [kJ/mol]>
# Atom-ID; Total; Rec-Desolv; Rec-IA; Lig-Desolv; Lig-IA
1;-4.9463;5.3514;-8.4285;-0.6730;-1.1962
2;-1.5960;-1.1657;0.0000;-0.4304;0.0000
3;-1.3292;-1.1918;0.0000;-0.1374;0.0000
4;-0.2043;0.0000;0.0000;-0.2043;0.0000
5;-0.0331;0.0000;0.0000;-0.0331;0.0000
6;-0.5307;0.0000;0.0000;-0.5307;0.0000
7;-5.3012;14.9243;-18.0505;10.3049;-12.4799
8;0.0000;0.0000;0.0000;0.0000;0.0000
9;-2.7959;-1.6683;0.0000;-1.1276;0.0000
10;0.0000;0.0000;0.0000;0.0000;0.0000
11;0.0000;0.0000;0.0000;0.0000;0.0000
12;-0.6472;0.0000;0.0000;-0.6472;0.0000
13;5.2655;5.6415;0.0000;-0.3759;0.0000
14;-0.3241;0.0000;0.0000;-0.3241;0.0000
15;-11.7610;9.0157;-19.8042;4.1138;-5.0864
16;-6.2938;12.4373;-16.5478;3.9426;-6.1258
17;-1.8719;-1.1331;0.0000;-0.7389;0.0000
18;7.7235;0.6934;0.0000;7.0301;0.0000
19;-1.5523;-0.7105;0.0000;-0.8418;0.0000
20;-0.1527;0.0000;0.0000;-0.1527;0.0000
21;0.6018;0.8565;0.0000;-0.2547;0.0000

> <BIOSOLVEIT.HYDE_ESTIMATED_AFFINITY_LOWER_BOUNDARY [nM]>
2487.974615

> <BIOSOLVEIT.HYDE_ESTIMATED_AFFINITY_UPPER_BOUNDARY [nM]>
247194.988083

> <BIOSOLVEIT.HYDE_LIGAND_EFFICIENCY>
0.307037

> <BIOSOLVEIT.HYDE_LIGAND_LIPOPHILIC_EFFICIENCY>
5.267357

> <BIOSOLVEIT.INTER_CLASH range: 0=green, 1=yellow, 2=red>
0

> <BIOSOLVEIT.INTRA_CLASH range: 0=green, 1=yellow, 2=red>
0

> <BIOSOLVEIT.LOGP>
-0.6618

> <BIOSOLVEIT.MOLECULAR_WEIGHT>
310.351

> <BIOSOLVEIT.MOLECULE_CHECKSUM>
LTI2LjI4ODY7MC4zMDcwMzc=

> <BIOSOLVEIT.TORSION_QUALITY range: 0=green/not rotatable, 1=yellow, 2=red>
1

> <BIOSOLVEIT.TPSA>
114.38

> <cleaned_smiles (canonical SMILES)>
OC(=O)C1CC(O)(CNC(=O)c2c[n]c(NC3CC3)[s]2)C1

$$$$
no name_1_003
phSeeSAR  05142510573D 1   1.00000     0.00000     0
SeeSAR 14.1.2 pham.congdat
 38 40  0  0  0  0            999 V2000
   -2.8793    0.9457    9.6994 S   0  0  0  0  0  0  0  0  0  0  0  0
   -4.1076    1.4191   10.2896 O   0  0  0  0  0  0  0  0  0  0  0  0
   -3.1553    0.4702    8.3685 O   0  0  0  0  0  0  0  0  0  0  0  0
   -1.7173    2.0947    9.6964 N   0  0  0  0  0  0  0  0  0  0  0  0
   -0.3782    1.6004    9.3194 C   0  0  0  0  0  0  0  0  0  0  0  0
    0.0165    0.3308    9.9635 N   0  0  0  0  0  0  0  0  0  0  0  0
    1.3271    0.2039   10.3190 C   0  0  0  0  0  0  0  0  0  0  0  0
    2.1188    1.1256   10.0983 O   0  0  0  0  0  0  0  0  0  0  0  0
    1.7651   -0.9461   10.9210 N   0  0  0  0  0  0  0  0  0  0  0  0
    3.0968   -1.2620   11.3637 C   0  0  0  0  0  0  0  0  0  0  0  0
    3.3653   -1.5787   12.6907 C   0  0  0  0  0  0  0  0  0  0  0  0
    4.6160   -1.8685   13.0793 N   0  0  0  0  0  0  0  0  0  0  0  0
    5.6392   -1.8633   12.2126 C   0  0  0  0  0  0  0  0  0  0  0  0
    5.4039   -1.5606   10.9261 N   0  0  0  0  0  0  0  0  0  0  0  0
    4.1732   -1.2623   10.4825 C   0  0  0  0  0  0  0  0  0  0  0  0
    7.0391   -2.1986   12.7048 C   0  0  0  0  0  0  0  0  0  0  0  0
    7.6202   -3.3230   11.8563 C   0  0  0  0  0  0  0  0  0  0  0  0
    9.1073   -3.4242   11.6839 C   0  0  0  0  0  0  0  0  0  0  0  0
    8.3848   -4.4129   12.5512 C   0  0  0  0  0  0  0  0  0  0  0  0
   -0.8638   -0.8120   10.2731 C   0  0  0  0  0  0  0  0  0  0  0  0
   -2.2511   -0.3899   10.7456 C   0  0  0  0  0  0  0  0  0  0  0  0
   -1.9827    2.8075    9.0472 H   0  0  0  0  0  0  0  0  0  0  0  0
    0.3400    2.3470    9.5870 H   0  0  0  0  0  0  0  0  0  0  0  0
   -0.3633    1.4549    8.2594 H   0  0  0  0  0  0  0  0  0  0  0  0
    1.0740   -1.6531   11.0711 H   0  0  0  0  0  0  0  0  0  0  0  0
    2.5696   -1.5914   13.4061 H   0  0  0  0  0  0  0  0  0  0  0  0
    4.0198   -1.0245    9.4505 H   0  0  0  0  0  0  0  0  0  0  0  0
    6.9925   -2.5109   13.7272 H   0  0  0  0  0  0  0  0  0  0  0  0
    7.6623   -1.3326   12.6245 H   0  0  0  0  0  0  0  0  0  0  0  0
    7.0306   -3.6277   11.0170 H   0  0  0  0  0  0  0  0  0  0  0  0
    9.7483   -2.6914   12.1278 H   0  0  0  0  0  0  0  0  0  0  0  0
    9.5170   -3.7349   10.7456 H   0  0  0  0  0  0  0  0  0  0  0  0
    8.2791   -5.4285   12.2312 H   0  0  0  0  0  0  0  0  0  0  0  0
    8.5104   -4.3849   13.6135 H   0  0  0  0  0  0  0  0  0  0  0  0
   -0.4051   -1.3960   11.0435 H   0  0  0  0  0  0  0  0  0  0  0  0
   -0.9716   -1.4073    9.3905 H   0  0  0  0  0  0  0  0  0  0  0  0
   -2.9151   -1.2270   10.6887 H   0  0  0  0  0  0  0  0  0  0  0  0
   -2.1924   -0.0493   11.7583 H   0  0  0  0  0  0  0  0  0  0  0  0
  1  2  2  0  0  0  0
  1  3  2  0  0  0  0
  1  4  1  0  0  0  0
  1 21  1  0  0  0  0
  4  5  1  0  0  0  0
  5  6  1  0  0  0  0
  6  7  1  0  0  0  0
  6 20  1  0  0  0  0
  7  8  2  0  0  0  0
  7  9  1  0  0  0  0
  9 10  1  0  0  0  0
 10 11  2  0  0  0  0
 10 15  1  0  0  0  0
 11 12  1  0  0  0  0
 12 13  2  0  0  0  0
 13 14  1  0  0  0  0
 13 16  1  0  0  0  0
 14 15  2  0  0  0  0
 16 17  1  0  0  0  0
 17 18  1  0  0  0  0
 17 19  1  0  0  0  0
 18 19  1  0  0  0  0
 20 21  1  0  0  0  0
  4 22  1  0  0  0  0
  5 23  1  0  0  0  0
  5 24  1  0  0  0  0
  9 25  1  0  0  0  0
 11 26  1  0  0  0  0
 15 27  1  0  0  0  0
 16 28  1  0  0  0  0
 16 29  1  0  0  0  0
 17 30  1  0  0  0  0
 18 31  1  0  0  0  0
 18 32  1  0  0  0  0
 19 33  1  0  0  0  0
 19 34  1  0  0  0  0
 20 35  1  0  0  0  0
 20 36  1  0  0  0  0
 21 37  1  0  0  0  0
 21 38  1  0  0  0  0
M  END
> <BIOSOLVEIT.HYDE_ATOM_SCORES [kJ/mol]>
# Atom-ID; Total; Rec-Desolv; Rec-IA; Lig-Desolv; Lig-IA
1;-0.1953;0.0000;0.0000;-0.1953;0.0000
2;-7.4734;23.4115;-28.5346;2.7852;-5.1355
3;-7.4100;8.8889;-16.1495;3.0561;-3.2056
4;-2.6517;7.5994;-8.4287;10.3679;-12.1904
5;-0.7835;0.0000;0.0000;-0.7835;0.0000
6;0.0000;0.0000;0.0000;0.0000;0.0000
7;0.0000;0.0000;0.0000;0.0000;0.0000
8;0.0000;0.0000;0.0000;0.0000;0.0000
9;0.0000;0.0000;0.0000;0.0000;0.0000
10;0.0000;0.0000;0.0000;0.0000;0.0000
11;0.0000;0.0000;0.0000;0.0000;0.0000
12;-0.0030;0.0000;0.0000;-0.0030;0.0000
13;-0.1023;0.0000;0.0000;-0.1023;0.0000
14;-0.1374;-0.0229;0.0000;-0.1144;0.0000
15;-0.2425;0.0000;0.0000;-0.2425;0.0000
16;-0.2419;0.0000;0.0000;-0.2419;0.0000
17;-2.4697;-1.5641;0.0000;-0.9056;0.0000
18;-0.1127;0.0000;0.0000;-0.1127;0.0000
19;0.2948;1.0385;0.0000;-0.7438;0.0000
20;-2.1184;-1.4421;0.0000;-0.6763;0.0000
21;-1.2975;0.0000;0.0000;-1.2975;0.0000

> <BIOSOLVEIT.HYDE_ESTIMATED_AFFINITY_LOWER_BOUNDARY [nM]>
3074.011219

> <BIOSOLVEIT.HYDE_ESTIMATED_AFFINITY_UPPER_BOUNDARY [nM]>
305421.189557

> <BIOSOLVEIT.HYDE_LIGAND_EFFICIENCY>
0.300913

> <BIOSOLVEIT.HYDE_LIGAND_LIPOPHILIC_EFFICIENCY>
3.709598

> <BIOSOLVEIT.INTER_CLASH range: 0=green, 1=yellow, 2=red>
0

> <BIOSOLVEIT.INTRA_CLASH range: 0=green, 1=yellow, 2=red>
0

> <BIOSOLVEIT.LOGP>
0.8041

> <BIOSOLVEIT.MOLECULAR_WEIGHT>
311.363

> <BIOSOLVEIT.MOLECULE_CHECKSUM>
LTI1Ljc2NDI7MC4zMDA5MTM=

> <BIOSOLVEIT.TORSION_QUALITY range: 0=green/not rotatable, 1=yellow, 2=red>
0

> <BIOSOLVEIT.TPSA>
104.29

> <cleaned_smiles (canonical SMILES)>
O=C(Nc1c[n]c(CC2CC2)[n]c1)N1CNS(=O)(=O)CC1

> <BIOSOLVEIT.OPTIBRIUM.2C9 pKi>
4.33356

> <BIOSOLVEIT.OPTIBRIUM.2D6 affinity category>
low

> <BIOSOLVEIT.OPTIBRIUM.BBB category>
-

> <BIOSOLVEIT.OPTIBRIUM.BBB log([brain]:[blood])>
-0.84622

> <BIOSOLVEIT.OPTIBRIUM.hERG pIC50>
4.65217

> <BIOSOLVEIT.OPTIBRIUM.HIA category>
-

> <BIOSOLVEIT.OPTIBRIUM.logD>
1.28708

> <BIOSOLVEIT.OPTIBRIUM.logP>
1.28708

> <BIOSOLVEIT.OPTIBRIUM.logS @ pH7.4>
1.74969

> <BIOSOLVEIT.OPTIBRIUM.logS>
1.74969

> <BIOSOLVEIT.OPTIBRIUM.P-gp category>
no

> <BIOSOLVEIT.OPTIBRIUM.PPB90 category>
low

$$$$
no name_1_002
phSeeSAR  05142510573D 1   1.00000     0.00000     0
SeeSAR 14.1.2 pham.congdat
 38 39  0  0  0  0            999 V2000
   -2.8839    1.0659    9.7723 S   0  0  0  0  0  0  0  0  0  0  0  0
   -4.1602    1.4454   10.3188 O   0  0  0  0  0  0  0  0  0  0  0  0
   -3.0506    0.3592    8.5263 O   0  0  0  0  0  0  0  0  0  0  0  0
   -1.9859    0.2348   10.8434 N   0  0  0  0  0  0  0  0  0  0  0  0
   -2.1783   -1.2156   10.6844 C   0  0  0  0  0  0  0  0  0  0  0  0
   -2.7110   -1.8013   11.9819 C   0  0  0  0  0  0  0  0  0  0  0  0
   -2.1659   -1.0473   13.1201 N   0  0  0  0  0  0  0  0  0  0  0  0
   -2.7530   -1.1494   14.3537 C   0  0  0  0  0  0  0  0  0  0  0  0
   -3.7404   -1.8749   14.5095 O   0  0  0  0  0  0  0  0  0  0  0  0
   -2.2450   -0.4469   15.4145 N   0  0  0  0  0  0  0  0  0  0  0  0
   -2.7866   -0.4754   16.7797 C   0  0  0  0  0  0  0  0  0  0  0  0
   -1.8678    0.4032   17.6089 C   0  0  1  0  0  0  0  0  0  0  0  0
   -0.7581   -0.4013   18.2777 C   0  0  0  0  0  0  0  0  0  0  0  0
    0.0096    0.4137   18.9955 F   0  0  0  0  0  0  0  0  0  0  0  0
   -1.2956   -1.3203   19.0748 F   0  0  0  0  0  0  0  0  0  0  0  0
   -1.3296    1.3420   16.5513 C   0  0  0  0  0  0  0  0  0  0  0  0
   -1.0884    0.4424   15.3529 C   0  0  0  0  0  0  0  0  0  0  0  0
   -0.5992    0.6643   10.6157 C   0  0  0  0  0  0  0  0  0  0  0  0
   -0.6133    1.6425    9.4598 C   0  0  0  0  0  0  0  0  0  0  0  0
   -1.8908    2.3357    9.6149 N   0  0  0  0  0  0  0  0  0  0  0  0
   -1.2426   -1.6752   10.4433 H   0  0  0  0  0  0  0  0  0  0  0  0
   -2.8789   -1.3982    9.8966 H   0  0  0  0  0  0  0  0  0  0  0  0
   -2.4147   -2.8266   12.0586 H   0  0  0  0  0  0  0  0  0  0  0  0
   -3.7790   -1.7371   11.9902 H   0  0  0  0  0  0  0  0  0  0  0  0
   -1.3665   -0.4599   12.9940 H   0  0  0  0  0  0  0  0  0  0  0  0
   -2.7875   -1.4758   17.1592 H   0  0  0  0  0  0  0  0  0  0  0  0
   -3.7839   -0.0880   16.7928 H   0  0  0  0  0  0  0  0  0  0  0  0
   -2.4292    0.9462   18.3403 H   0  0  0  0  0  0  0  0  0  0  0  0
   -0.1648   -0.8822   17.5283 H   0  0  0  0  0  0  0  0  0  0  0  0
   -0.4172    1.7973   16.8752 H   0  0  0  0  0  0  0  0  0  0  0  0
   -2.0448    2.1029   16.3182 H   0  0  0  0  0  0  0  0  0  0  0  0
   -1.0747    1.0022   14.4411 H   0  0  0  0  0  0  0  0  0  0  0  0
   -0.1722   -0.1016   15.4514 H   0  0  0  0  0  0  0  0  0  0  0  0
    0.0103   -0.1808   10.3724 H   0  0  0  0  0  0  0  0  0  0  0  0
   -0.2148    1.1405   11.4934 H   0  0  0  0  0  0  0  0  0  0  0  0
   -0.5687    1.1280    8.5227 H   0  0  0  0  0  0  0  0  0  0  0  0
    0.2049    2.3285    9.5294 H   0  0  0  0  0  0  0  0  0  0  0  0
   -2.1152    2.8845    8.8096 H   0  0  0  0  0  0  0  0  0  0  0  0
  1  2  2  0  0  0  0
  1  3  2  0  0  0  0
  1  4  1  0  0  0  0
  1 20  1  0  0  0  0
  4  5  1  0  0  0  0
  4 18  1  0  0  0  0
  5  6  1  0  0  0  0
  6  7  1  0  0  0  0
  7  8  1  0  0  0  0
  8  9  2  0  0  0  0
  8 10  1  0  0  0  0
 10 11  1  0  0  0  0
 10 17  1  0  0  0  0
 11 12  1  0  0  0  0
 12 13  1  0  0  0  0
 12 16  1  0  0  0  0
 13 14  1  0  0  0  0
 13 15  1  0  0  0  0
 16 17  1  0  0  0  0
 18 19  1  0  0  0  0
 19 20  1  0  0  0  0
  5 21  1  0  0  0  0
  5 22  1  0  0  0  0
  6 23  1  0  0  0  0
  6 24  1  0  0  0  0
  7 25  1  0  0  0  0
 11 26  1  0  0  0  0
 11 27  1  0  0  0  0
 12 28  1  0  0  0  0
 13 29  1  0  0  0  0
 16 30  1  0  0  0  0
 16 31  1  0  0  0  0
 17 32  1  0  0  0  0
 17 33  1  0  0  0  0
 18 34  1  0  0  0  0
 18 35  1  0  0  0  0
 19 36  1  0  0  0  0
 19 37  1  0  0  0  0
 20 38  1  0  0  0  0
M  END
> <BIOSOLVEIT.HYDE_ATOM_SCORES [kJ/mol]>
# Atom-ID; Total; Rec-Desolv; Rec-IA; Lig-Desolv; Lig-IA
1;-0.2251;0.0000;0.0000;-0.2251;0.0000
2;-8.2613;22.8395;-28.9077;2.5702;-4.7632
3;-8.3781;8.8188;-16.8976;3.0548;-3.3541
4;1.3853;0.0000;0.0000;1.3853;0.0000
5;-2.7548;-1.4887;0.0000;-1.2661;0.0000
6;1.2835;2.2208;0.0000;-0.9373;0.0000
7;-0.0429;0.0000;0.0000;-0.0429;0.0000
8;-0.6128;0.0000;0.0000;-0.6128;0.0000
9;-1.2442;-1.3439;0.0000;0.0996;0.0000
10;1.5583;1.6027;0.0000;-0.0443;0.0000
11;-0.2749;0.0000;0.0000;-0.2749;0.0000
12;0.0000;0.0000;0.0000;0.0000;0.0000
13;0.0000;0.0000;0.0000;0.0000;0.0000
14;0.0000;0.0000;0.0000;0.0000;0.0000
15;0.0000;0.0000;0.0000;0.0000;0.0000
16;-0.4288;0.0000;0.0000;-0.4288;0.0000
17;-0.7828;0.0000;0.0000;-0.7828;0.0000
18;-0.3909;0.0000;0.0000;-0.3909;0.0000
19;-0.6205;0.0000;0.0000;-0.6205;0.0000
20;-2.4830;7.5726;-8.4288;10.5639;-12.1906

> <BIOSOLVEIT.HYDE_ESTIMATED_AFFINITY_LOWER_BOUNDARY [nM]>
8952.549812

> <BIOSOLVEIT.HYDE_ESTIMATED_AFFINITY_UPPER_BOUNDARY [nM]>
889488.755534

> <BIOSOLVEIT.HYDE_LIGAND_EFFICIENCY>
0.283462

> <BIOSOLVEIT.HYDE_LIGAND_LIPOPHILIC_EFFICIENCY>
3.965856

> <BIOSOLVEIT.INTER_CLASH range: 0=green, 1=yellow, 2=red>
0

> <BIOSOLVEIT.INTRA_CLASH range: 0=green, 1=yellow, 2=red>
0

> <BIOSOLVEIT.LOGP>
0.0836

> <BIOSOLVEIT.MOLECULAR_WEIGHT>
312.338

> <BIOSOLVEIT.MOLECULE_CHECKSUM>
LTIzLjExNDM7MC4yODM0NjI=

> <BIOSOLVEIT.TORSION_QUALITY range: 0=green/not rotatable, 1=yellow, 2=red>
0

> <BIOSOLVEIT.TPSA>
81.75

> <cleaned_smiles (canonical SMILES)>
O=C(NCCN1CCNS1(=O)=O)N1CC(CC1)C(F)F

> <BIOSOLVEIT.OPTIBRIUM.2C9 pKi>
3.82812

> <BIOSOLVEIT.OPTIBRIUM.2D6 affinity category>
low

> <BIOSOLVEIT.OPTIBRIUM.BBB category>
-

> <BIOSOLVEIT.OPTIBRIUM.BBB log([brain]:[blood])>
-0.658186

> <BIOSOLVEIT.OPTIBRIUM.hERG pIC50>
4.51563

> <BIOSOLVEIT.OPTIBRIUM.HIA category>
+

> <BIOSOLVEIT.OPTIBRIUM.logD>
-0.15052

> <BIOSOLVEIT.OPTIBRIUM.logP>
-0.15052

> <BIOSOLVEIT.OPTIBRIUM.logS @ pH7.4>
3.02423

> <BIOSOLVEIT.OPTIBRIUM.logS>
3.02423

> <BIOSOLVEIT.OPTIBRIUM.P-gp category>
no

> <BIOSOLVEIT.OPTIBRIUM.PPB90 category>
low

$$$$
no name_1_002
phSeeSAR  05142510573D 1   1.00000     0.00000     0
SeeSAR 14.1.2 pham.congdat
 38 39  0  0  0  0            999 V2000
    2.2972   -2.0127   11.3672 S   0  0  0  0  0  0  0  0  0  0  0  0
    0.5887   -2.4359   11.7905 C   0  0  0  0  0  0  0  0  0  0  0  0
    0.7657   -3.4308   12.8487 N   0  0  0  0  0  0  0  0  0  0  0  0
   -0.1428   -3.6307   13.7907 C   0  0  0  0  0  0  0  0  0  0  0  0
   -0.8638   -2.6989   14.1608 O   0  0  0  0  0  0  0  0  0  0  0  0
   -0.2948   -4.9753   14.4025 C   0  0  0  0  0  0  0  0  0  0  0  0
   -0.6311   -5.9911   13.6641 N   0  3  0  0  0  0  0  0  0  0  0  0
   -0.7739   -7.2541   14.2388 O   0  0  0  0  0  0  0  0  0  0  0  0
   -1.4865   -8.2711   13.5500 C   0  0  0  0  0  0  0  0  0  0  0  0
   -0.0633   -5.1592   15.8552 C   0  0  0  0  0  0  0  0  0  0  0  0
    1.1101   -5.5100   16.3925 O   0  0  0  0  0  0  0  0  0  0  0  0
    0.9420   -5.5833   17.7232 C   0  0  0  0  0  0  0  0  0  0  0  0
   -0.3524   -5.2825   18.0541 C   0  0  0  0  0  0  0  0  0  0  0  0
   -1.0177   -5.0006   16.8139 C   0  0  0  0  0  0  0  0  0  0  0  0
    2.0257   -4.1960   12.7840 C   0  0  2  0  0  0  0  0  0  0  0  0
    2.8809   -3.9262   14.0063 C   0  0  0  0  0  0  0  0  0  0  0  0
    3.7637   -4.7264   14.3312 O   0  0  0  0  0  0  0  0  0  0  0  0
    2.6833   -2.8442   14.7180 O   0  0  0  0  0  0  0  0  0  0  0  0
    3.4573   -2.6113   15.8855 C   0  0  0  0  0  0  0  0  0  0  0  0
    4.7195   -1.8507   15.5133 C   0  0  0  0  0  0  0  0  0  0  0  0
    2.7820   -3.7368   11.5406 C   0  0  0  0  0  0  0  0  0  0  0  0
    0.0732   -2.8517   10.9502 H   0  0  0  0  0  0  0  0  0  0  0  0
    0.0551   -1.5803   12.1485 H   0  0  0  0  0  0  0  0  0  0  0  0
   -1.4924   -9.1642   14.1393 H   0  0  0  0  0  0  0  0  0  0  0  0
   -2.4926   -7.9491   13.3802 H   0  0  0  0  0  0  0  0  0  0  0  0
   -1.0113   -8.4663   12.6114 H   0  0  0  0  0  0  0  0  0  0  0  0
    1.7090   -5.8398   18.4238 H   0  0  0  0  0  0  0  0  0  0  0  0
   -0.7797   -5.2619   19.0349 H   0  0  0  0  0  0  0  0  0  0  0  0
   -2.0421   -4.7254   16.6730 H   0  0  0  0  0  0  0  0  0  0  0  0
    1.8122   -5.2420   12.7137 H   0  0  0  0  0  0  0  0  0  0  0  0
    3.7231   -3.5477   16.3298 H   0  0  0  0  0  0  0  0  0  0  0  0
    2.8861   -2.0350   16.5829 H   0  0  0  0  0  0  0  0  0  0  0  0
    5.3027   -1.6752   16.3930 H   0  0  0  0  0  0  0  0  0  0  0  0
    5.2906   -2.4270   14.8158 H   0  0  0  0  0  0  0  0  0  0  0  0
    4.4537   -0.9143   15.0689 H   0  0  0  0  0  0  0  0  0  0  0  0
    3.8391   -3.8246   11.6818 H   0  0  0  0  0  0  0  0  0  0  0  0
    2.4884   -4.3050   10.6828 H   0  0  0  0  0  0  0  0  0  0  0  0
   -0.7874   -5.8670   12.6842 H   0  0  0  0  0  0  0  0  0  0  0  0
  1  2  1  0  0  0  0
  1 21  1  0  0  0  0
  2  3  1  0  0  0  0
  3  4  1  0  0  0  0
  3 15  1  0  0  0  0
  4  5  2  0  0  0  0
  4  6  1  0  0  0  0
  6  7  2  0  0  0  0
  6 10  1  0  0  0  0
  7  8  1  0  0  0  0
  8  9  1  0  0  0  0
 10 11  1  0  0  0  0
 10 14  2  0  0  0  0
 11 12  1  0  0  0  0
 12 13  2  0  0  0  0
 13 14  1  0  0  0  0
 15 16  1  0  0  0  0
 15 21  1  0  0  0  0
 16 17  2  0  0  0  0
 16 18  1  0  0  0  0
 18 19  1  0  0  0  0
 19 20  1  0  0  0  0
  2 22  1  0  0  0  0
  2 23  1  0  0  0  0
  9 24  1  0  0  0  0
  9 25  1  0  0  0  0
  9 26  1  0  0  0  0
 12 27  1  0  0  0  0
 13 28  1  0  0  0  0
 14 29  1  0  0  0  0
 15 30  1  0  0  0  0
 19 31  1  0  0  0  0
 19 32  1  0  0  0  0
 20 33  1  0  0  0  0
 20 34  1  0  0  0  0
 20 35  1  0  0  0  0
 21 36  1  0  0  0  0
 21 37  1  0  0  0  0
  7 38  1  0  0  0  0
M  CHG  1   7   1
M  END
> <BIOSOLVEIT.HYDE_ATOM_SCORES [kJ/mol]>
# Atom-ID; Total; Rec-Desolv; Rec-IA; Lig-Desolv; Lig-IA
1;0.0000;0.0000;0.0000;0.0000;0.0000
2;-0.4640;-0.1847;0.0000;-0.2793;0.0000
3;0.0000;0.0000;0.0000;0.0000;0.0000
4;0.0000;0.0000;0.0000;0.0000;0.0000
5;0.0016;0.0000;0.0000;0.0016;0.0000
6;0.0000;0.0000;0.0000;0.0000;0.0000
7;-3.0585;2.9126;-4.9071;6.9884;-8.0525
8;-5.4201;4.2441;-8.4062;3.8648;-5.1226
9;-0.0392;2.2542;0.0000;-2.2934;0.0000
10;0.0000;0.0000;0.0000;0.0000;0.0000
11;-1.8530;-1.3142;0.0000;-0.5388;0.0000
12;-1.3841;-0.6154;0.0000;-0.7687;0.0000
13;0.3558;0.5175;0.0000;-0.1617;0.0000
14;-1.5982;-0.7677;0.0000;-0.8305;0.0000
15;-0.6277;0.0000;0.0000;-0.6277;0.0000
16;0.0000;0.0000;0.0000;0.0000;0.0000
17;-3.3146;6.1894;-8.3266;9.0966;-10.2741
18;0.0000;0.0000;0.0000;0.0000;0.0000
19;-0.2860;0.0000;0.0000;-0.2860;0.0000
20;-0.4870;0.0000;0.0000;-0.4870;0.0000
21;2.8906;3.7917;0.0000;-0.9011;0.0000

> <BIOSOLVEIT.HYDE_ESTIMATED_AFFINITY_LOWER_BOUNDARY [nM]>
210713.158266

> <BIOSOLVEIT.HYDE_ESTIMATED_AFFINITY_UPPER_BOUNDARY [nM]>
20935598.108476

> <BIOSOLVEIT.HYDE_LIGAND_EFFICIENCY>
0.178514

> <BIOSOLVEIT.HYDE_LIGAND_LIPOPHILIC_EFFICIENCY>
3.502411

> <BIOSOLVEIT.INTER_CLASH range: 0=green, 1=yellow, 2=red>
0

> <BIOSOLVEIT.INTRA_CLASH range: 0=green, 1=yellow, 2=red>
0

> <BIOSOLVEIT.LOGP>
-0.8247

> <BIOSOLVEIT.MOLECULAR_WEIGHT>
313.351

> <BIOSOLVEIT.MOLECULE_CHECKSUM>
LTE1LjI4NDQ7MC4xNzg1MTQ=

> <BIOSOLVEIT.TORSION_QUALITY range: 0=green/not rotatable, 1=yellow, 2=red>
1

> <BIOSOLVEIT.TPSA>
82.95

> <cleaned_smiles (canonical SMILES)>
CON=C(c1ccco1)C(=O)N1CSCC1C(=O)OCC

> <BIOSOLVEIT.OPTIBRIUM.2C9 pKi>
4.28163

> <BIOSOLVEIT.OPTIBRIUM.2D6 affinity category>
medium

> <BIOSOLVEIT.OPTIBRIUM.BBB category>
-

> <BIOSOLVEIT.OPTIBRIUM.BBB log([brain]:[blood])>
-0.742166

> <BIOSOLVEIT.OPTIBRIUM.hERG pIC50>
4.13

> <BIOSOLVEIT.OPTIBRIUM.HIA category>
+

> <BIOSOLVEIT.OPTIBRIUM.logD>
1.54317

> <BIOSOLVEIT.OPTIBRIUM.logP>
1.54317

> <BIOSOLVEIT.OPTIBRIUM.logS @ pH7.4>
3.25327

> <BIOSOLVEIT.OPTIBRIUM.logS>
3.25327

> <BIOSOLVEIT.OPTIBRIUM.P-gp category>
no

> <BIOSOLVEIT.OPTIBRIUM.PPB90 category>
low

$$$$
no name_1_008
phSeeSAR  05142510573D 1   1.00000     0.00000     0
SeeSAR 14.1.2 pham.congdat
 35 36  0  0  0  0            999 V2000
   -2.7412    0.2984   11.0705 S   0  0  0  0  0  0  0  0  0  0  0  0
   -3.2152    0.6816    9.4564 C   0  0  0  0  0  0  0  0  0  0  0  0
   -2.1331    1.1266    8.8560 N   0  0  0  0  0  0  0  0  0  0  0  0
   -0.9674    1.1673    9.6133 C   0  0  0  0  0  0  0  0  0  0  0  0
   -1.0851    0.7463   10.9031 C   0  0  0  0  0  0  0  0  0  0  0  0
    0.3684    1.6496    9.0811 C   0  0  2  0  0  0  0  0  0  0  0  0
    0.3658    3.1178    9.0083 N   0  3  0  0  0  0  0  0  0  0  0  0
    1.7432    3.6025    8.8396 C   0  0  0  0  0  0  0  0  0  0  0  0
   -0.4494    3.5502    7.8641 C   0  0  0  0  0  0  0  0  0  0  0  0
    0.5985    1.0738    7.6933 C   0  0  0  0  0  0  0  0  0  0  0  0
    1.3325    1.6635    6.8940 O   0  0  0  0  0  0  0  0  0  0  0  0
    0.0184   -0.0479    7.3451 O   0  0  0  0  0  0  0  0  0  0  0  0
    0.7609   -1.0507    6.6672 C   0  0  0  0  0  0  0  0  0  0  0  0
    1.5978   -1.8274    7.6715 C   0  0  0  0  0  0  0  0  0  0  0  0
    1.4428   -3.2048    7.7947 C   0  0  0  0  0  0  0  0  0  0  0  0
    2.2215   -3.8914    8.7215 C   0  0  0  0  0  0  0  0  0  0  0  0
    2.0537   -5.2095    8.8223 F   0  0  0  0  0  0  0  0  0  0  0  0
    3.1062   -3.2162    9.4763 N   0  0  0  0  0  0  0  0  0  0  0  0
    3.2819   -1.8864    9.3827 C   0  0  0  0  0  0  0  0  0  0  0  0
    4.1626   -1.2304   10.1373 F   0  0  0  0  0  0  0  0  0  0  0  0
    2.5235   -1.1612    8.4692 C   0  0  0  0  0  0  0  0  0  0  0  0
   -4.1913    0.5782    9.0304 H   0  0  0  0  0  0  0  0  0  0  0  0
   -0.3184    0.7030   11.6484 H   0  0  0  0  0  0  0  0  0  0  0  0
    1.1508    1.3263    9.7356 H   0  0  0  0  0  0  0  0  0  0  0  0
    1.7413    4.6712    8.7865 H   0  0  0  0  0  0  0  0  0  0  0  0
    2.3366    3.2878    9.6725 H   0  0  0  0  0  0  0  0  0  0  0  0
    2.1544    3.2014    7.9369 H   0  0  0  0  0  0  0  0  0  0  0  0
   -0.4514    4.6188    7.8112 H   0  0  0  0  0  0  0  0  0  0  0  0
   -0.0383    3.1491    6.9613 H   0  0  0  0  0  0  0  0  0  0  0  0
   -1.4521    3.1974    7.9869 H   0  0  0  0  0  0  0  0  0  0  0  0
    1.4044   -0.5917    5.9459 H   0  0  0  0  0  0  0  0  0  0  0  0
    0.0882   -1.7186    6.1711 H   0  0  0  0  0  0  0  0  0  0  0  0
    0.7354   -3.7282    7.1860 H   0  0  0  0  0  0  0  0  0  0  0  0
    2.6504   -0.1024    8.3809 H   0  0  0  0  0  0  0  0  0  0  0  0
   -0.0185    3.4926    9.8520 H   0  0  0  0  0  0  0  0  0  0  0  0
  1  2  1  0  0  0  0
  1  5  1  0  0  0  0
  2  3  2  0  0  0  0
  3  4  1  0  0  0  0
  4  5  2  0  0  0  0
  4  6  1  0  0  0  0
  6  7  1  0  0  0  0
  6 10  1  0  0  0  0
  7  8  1  0  0  0  0
  7  9  1  0  0  0  0
 10 11  2  0  0  0  0
 10 12  1  0  0  0  0
 12 13  1  0  0  0  0
 13 14  1  0  0  0  0
 14 15  2  0  0  0  0
 14 21  1  0  0  0  0
 15 16  1  0  0  0  0
 16 17  1  0  0  0  0
 16 18  2  0  0  0  0
 18 19  1  0  0  0  0
 19 20  1  0  0  0  0
 19 21  2  0  0  0  0
  2 22  1  0  0  0  0
  5 23  1  0  0  0  0
  6 24  1  0  0  0  0
  8 25  1  0  0  0  0
  8 26  1  0  0  0  0
  8 27  1  0  0  0  0
  9 28  1  0  0  0  0
  9 29  1  0  0  0  0
  9 30  1  0  0  0  0
 13 31  1  0  0  0  0
 13 32  1  0  0  0  0
 15 33  1  0  0  0  0
 21 34  1  0  0  0  0
  7 35  1  0  0  0  0
M  CHG  1   7   1
M  END
> <BIOSOLVEIT.HYDE_ATOM_SCORES [kJ/mol]>
# Atom-ID; Total; Rec-Desolv; Rec-IA; Lig-Desolv; Lig-IA
1;-2.6426;5.7637;-7.0736;-0.3287;-1.0039
2;5.4567;7.8090;0.0000;-2.3523;0.0000
3;-10.9941;10.0000;-19.7129;7.0270;-8.3083
4;-0.0956;0.0000;0.0000;-0.0956;0.0000
5;6.1658;6.9041;0.0000;-0.7383;0.0000
6;0.0000;0.0000;0.0000;0.0000;0.0000
7;-2.3536;8.0067;-9.1415;10.3626;-11.5814
8;-0.2823;0.0000;0.0000;-0.2823;0.0000
9;-4.0699;-2.1034;0.0000;-1.9665;0.0000
10;0.0000;0.0000;0.0000;0.0000;0.0000
11;-0.5716;-0.5327;0.0000;-0.0390;0.0000
12;-11.2160;10.0000;-19.9977;3.9178;-5.1361
13;-1.5322;-0.2680;0.0000;-1.2642;0.0000
14;0.0000;0.0000;0.0000;0.0000;0.0000
15;-5.7910;-4.4976;0.0000;-1.2934;0.0000
16;-0.3161;0.0000;0.0000;-0.3161;0.0000
17;-3.1249;-1.5964;0.0000;-1.5285;0.0000
18;-2.9971;4.9950;-7.4581;6.9241;-7.4581
19;-0.1328;0.0000;0.0000;-0.1328;0.0000
20;-0.0887;0.0000;0.0000;-0.0887;0.0000
21;0.0000;0.0000;0.0000;0.0000;0.0000

> <BIOSOLVEIT.HYDE_ESTIMATED_AFFINITY_LOWER_BOUNDARY [nM]>
79.561275

> <BIOSOLVEIT.HYDE_ESTIMATED_AFFINITY_UPPER_BOUNDARY [nM]>
7904.883082

> <BIOSOLVEIT.HYDE_LIGAND_EFFICIENCY>
0.406713

> <BIOSOLVEIT.HYDE_LIGAND_LIPOPHILIC_EFFICIENCY>
5.355401

> <BIOSOLVEIT.INTER_CLASH range: 0=green, 1=yellow, 2=red>
0

> <BIOSOLVEIT.INTRA_CLASH range: 0=green, 1=yellow, 2=red>
1

> <BIOSOLVEIT.LOGP>
0.7453

> <BIOSOLVEIT.MOLECULAR_WEIGHT>
314.334

> <BIOSOLVEIT.MOLECULE_CHECKSUM>
LTM0LjgyMjk7MC40MDY3MTM=

> <BIOSOLVEIT.TORSION_QUALITY range: 0=green/not rotatable, 1=yellow, 2=red>
1

> <BIOSOLVEIT.TPSA>
56.52

> <cleaned_smiles (canonical SMILES)>
CN(C)C(C(=O)OCc1cc(F)[n]c(F)c1)c1c[s]c[n]1

$$$$
no name_1_006
phSeeSAR  05142510573D 1   1.00000     0.00000     0
SeeSAR 14.1.2 pham.congdat
 47 49  0  0  0  0            999 V2000
   -3.0064    0.4560    9.6324 S   0  0  0  0  0  0  0  0  0  0  0  0
   -4.1728    1.1670   10.0878 O   0  0  0  0  0  0  0  0  0  0  0  0
   -3.4130   -0.6787    8.8446 O   0  0  0  0  0  0  0  0  0  0  0  0
   -2.0864    1.4475    8.7228 N   0  0  0  0  0  0  0  0  0  0  0  0
   -0.6747    1.5991    9.0167 N   0  0  0  0  0  0  0  0  0  0  0  0
    0.2600    1.3008    8.0604 C   0  0  0  0  0  0  0  0  0  0  0  0
   -0.1000    0.9028    6.9481 O   0  0  0  0  0  0  0  0  0  0  0  0
    1.7436    1.4601    8.3692 C   0  0  1  0  0  0  0  0  0  0  0  0
    2.6750    0.6482    7.4939 C   0  0  0  0  0  0  0  0  0  0  0  0
    2.6100    1.4503    6.2077 C   0  0  0  0  0  0  0  0  0  0  0  0
    2.6252    2.8530    6.6273 N   0  3  0  0  0  0  0  0  0  0  0  0
    2.1234    2.8850    8.0096 C   0  0  0  0  0  0  0  0  0  0  0  0
    4.1040    0.6319    8.0260 C   0  0  0  0  0  0  0  0  0  0  0  0
    4.2533   -0.0787    9.3670 C   0  0  0  0  0  0  0  0  0  0  0  0
    4.2482   -1.6004    9.2239 C   0  0  0  0  0  0  0  0  0  0  0  0
    2.8716   -2.2616    9.3022 C   0  0  0  0  0  0  0  0  0  0  0  0
    1.7537   -1.5727    8.5220 C   0  0  0  0  0  0  0  0  0  0  0  0
    2.1662   -0.7799    7.2801 C   0  0  0  0  0  0  0  0  0  0  0  0
   -2.0507   -0.1123   11.0603 C   0  0  0  0  0  0  0  0  0  0  0  0
   -2.3991   -1.4124   11.7236 C   0  0  0  0  0  0  0  0  0  0  0  0
   -1.1539   -1.3053   10.8932 C   0  0  0  0  0  0  0  0  0  0  0  0
   -2.4939    2.3585    8.7863 H   0  0  0  0  0  0  0  0  0  0  0  0
   -0.3832    1.9214    9.9174 H   0  0  0  0  0  0  0  0  0  0  0  0
    1.9359    1.2683    9.4042 H   0  0  0  0  0  0  0  0  0  0  0  0
    1.7103    1.2287    5.6727 H   0  0  0  0  0  0  0  0  0  0  0  0
    3.4556    1.2350    5.5884 H   0  0  0  0  0  0  0  0  0  0  0  0
    2.0331    3.3971    6.0328 H   0  0  0  0  0  0  0  0  0  0  0  0
    2.8858    3.2413    8.6705 H   0  0  0  0  0  0  0  0  0  0  0  0
    1.2668    3.5228    8.0763 H   0  0  0  0  0  0  0  0  0  0  0  0
    4.4324    1.6436    8.1419 H   0  0  0  0  0  0  0  0  0  0  0  0
    4.7249    0.1353    7.3100 H   0  0  0  0  0  0  0  0  0  0  0  0
    3.4409    0.2094   10.0009 H   0  0  0  0  0  0  0  0  0  0  0  0
    5.1781    0.2213    9.8137 H   0  0  0  0  0  0  0  0  0  0  0  0
    4.8551   -2.0076   10.0055 H   0  0  0  0  0  0  0  0  0  0  0  0
    4.6781   -1.8442    8.2748 H   0  0  0  0  0  0  0  0  0  0  0  0
    2.5814   -2.2930   10.3316 H   0  0  0  0  0  0  0  0  0  0  0  0
    2.9657   -3.2595    8.9277 H   0  0  0  0  0  0  0  0  0  0  0  0
    1.2626   -0.8959    9.1896 H   0  0  0  0  0  0  0  0  0  0  0  0
    1.0640   -2.3285    8.2091 H   0  0  0  0  0  0  0  0  0  0  0  0
    2.9448   -1.3287    6.7928 H   0  0  0  0  0  0  0  0  0  0  0  0
    1.3130   -0.7239    6.6368 H   0  0  0  0  0  0  0  0  0  0  0  0
   -1.6846    0.6559   11.7090 H   0  0  0  0  0  0  0  0  0  0  0  0
   -3.2296   -1.9873   11.3706 H   0  0  0  0  0  0  0  0  0  0  0  0
   -2.3263   -1.5067   12.7870 H   0  0  0  0  0  0  0  0  0  0  0  0
   -0.1933   -1.3229   11.3643 H   0  0  0  0  0  0  0  0  0  0  0  0
   -1.0966   -1.8035    9.9479 H   0  0  0  0  0  0  0  0  0  0  0  0
    3.5570    3.2140    6.5903 H   0  0  0  0  0  0  0  0  0  0  0  0
  1  2  2  0  0  0  0
  1  3  2  0  0  0  0
  1  4  1  0  0  0  0
  1 19  1  0  0  0  0
  4  5  1  0  0  0  0
  5  6  1  0  0  0  0
  6  7  2  0  0  0  0
  6  8  1  0  0  0  0
  8  9  1  0  0  0  0
  8 12  1  0  0  0  0
  9 10  1  0  0  0  0
  9 13  1  0  0  0  0
  9 18  1  0  0  0  0
 10 11  1  0  0  0  0
 11 12  1  0  0  0  0
 13 14  1  0  0  0  0
 14 15  1  0  0  0  0
 15 16  1  0  0  0  0
 16 17  1  0  0  0  0
 17 18  1  0  0  0  0
 19 20  1  0  0  0  0
 19 21  1  0  0  0  0
 20 21  1  0  0  0  0
  4 22  1  0  0  0  0
  5 23  1  0  0  0  0
  8 24  1  0  0  0  0
 10 25  1  0  0  0  0
 10 26  1  0  0  0  0
 11 27  1  0  0  0  0
 12 28  1  0  0  0  0
 12 29  1  0  0  0  0
 13 30  1  0  0  0  0
 13 31  1  0  0  0  0
 14 32  1  0  0  0  0
 14 33  1  0  0  0  0
 15 34  1  0  0  0  0
 15 35  1  0  0  0  0
 16 36  1  0  0  0  0
 16 37  1  0  0  0  0
 17 38  1  0  0  0  0
 17 39  1  0  0  0  0
 18 40  1  0  0  0  0
 18 41  1  0  0  0  0
 19 42  1  0  0  0  0
 20 43  1  0  0  0  0
 20 44  1  0  0  0  0
 21 45  1  0  0  0  0
 21 46  1  0  0  0  0
 11 47  1  0  0  0  0
M  CHG  1  11   1
M  END
> <BIOSOLVEIT.HYDE_ATOM_SCORES [kJ/mol]>
# Atom-ID; Total; Rec-Desolv; Rec-IA; Lig-Desolv; Lig-IA
1;-0.1827;0.0000;0.0000;-0.1827;0.0000
2;0.8011;30.2420;-27.5825;2.8880;-4.7465
3;-3.9810;14.1301;-16.6963;2.7936;-4.2084
4;-10.5473;9.8485;-19.9985;11.7932;-12.1904
5;0.5646;0.6578;0.0000;-0.0933;0.0000
6;0.0000;0.0000;0.0000;0.0000;0.0000
7;-13.5918;8.0604;-19.9978;8.7453;-10.3997
8;0.0000;0.0000;0.0000;0.0000;0.0000
9;0.0000;0.0000;0.0000;0.0000;0.0000
10;-0.3058;0.0000;0.0000;-0.3058;0.0000
11;0.2953;0.0000;0.0000;0.2953;0.0000
12;-0.2251;0.0000;0.0000;-0.2251;0.0000
13;0.0000;0.0000;0.0000;0.0000;0.0000
14;0.0000;0.0000;0.0000;0.0000;0.0000
15;-1.8938;-1.2116;0.0000;-0.6822;0.0000
16;-0.3015;0.1732;0.0000;-0.4747;0.0000
17;-0.6020;0.0000;0.0000;-0.6020;0.0000
18;-0.0832;0.0000;0.0000;-0.0832;0.0000
19;-1.6171;-0.9241;0.0000;-0.6930;0.0000
20;-0.9207;0.0000;0.0000;-0.9207;0.0000
21;-0.6299;-0.0095;0.0000;-0.6204;0.0000

> <BIOSOLVEIT.HYDE_ESTIMATED_AFFINITY_LOWER_BOUNDARY [nM]>
120.687510

> <BIOSOLVEIT.HYDE_ESTIMATED_AFFINITY_UPPER_BOUNDARY [nM]>
11991.017726

> <BIOSOLVEIT.HYDE_LIGAND_EFFICIENCY>
0.394649

> <BIOSOLVEIT.HYDE_LIGAND_LIPOPHILIC_EFFICIENCY>
5.635941

> <BIOSOLVEIT.INTER_CLASH range: 0=green, 1=yellow, 2=red>
0

> <BIOSOLVEIT.INTRA_CLASH range: 0=green, 1=yellow, 2=red>
1

> <BIOSOLVEIT.LOGP>
0.2838

> <BIOSOLVEIT.MOLECULAR_WEIGHT>
316.442

> <BIOSOLVEIT.MOLECULE_CHECKSUM>
LTMzLjc4OTk7MC4zOTQ2NDk=

> <BIOSOLVEIT.TORSION_QUALITY range: 0=green/not rotatable, 1=yellow, 2=red>
1

> <BIOSOLVEIT.TPSA>
91.88

> <cleaned_smiles (canonical SMILES)>
O=C(NNS(=O)(=O)C1CC1)C1CNCC21CCCCCC2

> <BIOSOLVEIT.OPTIBRIUM.2C9 pKi>
4.08055

> <BIOSOLVEIT.OPTIBRIUM.2D6 affinity category>
low

> <BIOSOLVEIT.OPTIBRIUM.BBB category>
-

> <BIOSOLVEIT.OPTIBRIUM.BBB log([brain]:[blood])>
-0.663838

> <BIOSOLVEIT.OPTIBRIUM.hERG pIC50>
4.35624

> <BIOSOLVEIT.OPTIBRIUM.HIA category>
+

> <BIOSOLVEIT.OPTIBRIUM.logD>
0.00121167

> <BIOSOLVEIT.OPTIBRIUM.logP>
1.2548

> <BIOSOLVEIT.OPTIBRIUM.logS @ pH7.4>
2.772

> <BIOSOLVEIT.OPTIBRIUM.logS>
3.88783

> <BIOSOLVEIT.OPTIBRIUM.P-gp category>
no

> <BIOSOLVEIT.OPTIBRIUM.PPB90 category>
low

$$$$
no name_1_004
phSeeSAR  05142510573D 1   1.00000     0.00000     0
SeeSAR 14.1.2 pham.congdat
 36 38  0  0  0  0            999 V2000
   -3.5703    0.4829   10.1056 S   0  0  0  0  0  0  0  0  0  0  0  0
   -2.5744    0.5599    8.7685 N   0  0  0  0  0  0  0  0  0  0  0  0
   -1.3966    0.1109    9.1171 N   0  0  0  0  0  0  0  0  0  0  0  0
   -1.2554   -0.3027   10.4438 C   0  0  0  0  0  0  0  0  0  0  0  0
   -2.4057   -0.1678   11.1874 C   0  0  0  0  0  0  0  0  0  0  0  0
   -2.6272   -0.4752   12.5196 C   0  0  0  0  0  0  0  0  0  0  0  0
   -1.5418   -0.9905   13.2080 C   0  0  0  0  0  0  0  0  0  0  0  0
   -0.3355   -1.1601   12.5327 C   0  0  0  0  0  0  0  0  0  0  0  0
   -0.1998   -0.8243   11.1878 C   0  0  0  0  0  0  0  0  0  0  0  0
   -1.7461   -1.3300   14.6382 C   0  0  0  0  0  0  0  0  0  0  0  0
   -1.1976   -2.3255   15.1211 O   0  0  0  0  0  0  0  0  0  0  0  0
   -2.5159   -0.5660   15.3959 N   0  0  0  0  0  0  0  0  0  0  0  0
   -2.7185   -0.9022   16.8126 C   0  0  0  0  0  0  0  0  0  0  0  0
   -3.7487   -2.0130   16.9273 C   0  0  0  0  0  0  0  0  0  0  0  0
   -4.9919   -1.8686   16.3211 C   0  0  0  0  0  0  0  0  0  0  0  0
   -5.2762   -0.7609   15.6433 F   0  0  0  0  0  0  0  0  0  0  0  0
   -5.9432   -2.8786   16.4197 C   0  0  0  0  0  0  0  0  0  0  0  0
   -5.6310   -4.0315   17.1321 C   0  0  0  0  0  0  0  0  0  0  0  0
   -4.3899   -4.1838   17.7418 C   0  0  0  0  0  0  0  0  0  0  0  0
   -3.4438   -3.1689   17.6382 C   0  0  0  0  0  0  0  0  0  0  0  0
   -6.6650   -5.1399   17.2454 C   0  0  0  0  0  0  0  0  0  0  0  0
   -7.9889   -4.5515   17.4946 N   0  3  0  0  0  0  0  0  0  0  0  0
   -3.5775   -0.3240   12.9876 H   0  0  0  0  0  0  0  0  0  0  0  0
    0.5068   -1.5576   13.0595 H   0  0  0  0  0  0  0  0  0  0  0  0
    0.7464   -0.9719   10.7105 H   0  0  0  0  0  0  0  0  0  0  0  0
   -2.9600    0.2402   15.0048 H   0  0  0  0  0  0  0  0  0  0  0  0
   -3.0664   -0.0375   17.3382 H   0  0  0  0  0  0  0  0  0  0  0  0
   -1.7924   -1.2292   17.2374 H   0  0  0  0  0  0  0  0  0  0  0  0
   -6.9007   -2.7702   15.9545 H   0  0  0  0  0  0  0  0  0  0  0  0
   -4.1642   -5.0762   18.2873 H   0  0  0  0  0  0  0  0  0  0  0  0
   -2.4863   -3.2771   18.1032 H   0  0  0  0  0  0  0  0  0  0  0  0
   -6.4049   -5.7889   18.0554 H   0  0  0  0  0  0  0  0  0  0  0  0
   -6.6893   -5.6996   16.3337 H   0  0  0  0  0  0  0  0  0  0  0  0
   -8.3956   -4.2662   16.6267 H   0  0  0  0  0  0  0  0  0  0  0  0
   -8.5786   -5.2306   17.9318 H   0  0  0  0  0  0  0  0  0  0  0  0
   -7.8931   -3.7574   18.0948 H   0  0  0  0  0  0  0  0  0  0  0  0
  1  2  1  0  0  0  0
  1  5  1  0  0  0  0
  2  3  2  0  0  0  0
  3  4  1  0  0  0  0
  4  5  2  0  0  0  0
  4  9  1  0  0  0  0
  5  6  1  0  0  0  0
  6  7  2  0  0  0  0
  7  8  1  0  0  0  0
  7 10  1  0  0  0  0
  8  9  2  0  0  0  0
 10 11  2  0  0  0  0
 10 12  1  0  0  0  0
 12 13  1  0  0  0  0
 13 14  1  0  0  0  0
 14 15  2  0  0  0  0
 14 20  1  0  0  0  0
 15 16  1  0  0  0  0
 15 17  1  0  0  0  0
 17 18  2  0  0  0  0
 18 19  1  0  0  0  0
 18 21  1  0  0  0  0
 19 20  2  0  0  0  0
 21 22  1  0  0  0  0
  6 23  1  0  0  0  0
  8 24  1  0  0  0  0
  9 25  1  0  0  0  0
 12 26  1  0  0  0  0
 13 27  1  0  0  0  0
 13 28  1  0  0  0  0
 17 29  1  0  0  0  0
 19 30  1  0  0  0  0
 20 31  1  0  0  0  0
 21 32  1  0  0  0  0
 21 33  1  0  0  0  0
 22 34  1  0  0  0  0
 22 35  1  0  0  0  0
 22 36  1  0  0  0  0
M  CHG  1  22   1
M  END
> <BIOSOLVEIT.HYDE_ATOM_SCORES [kJ/mol]>
# Atom-ID; Total; Rec-Desolv; Rec-IA; Lig-Desolv; Lig-IA
1;-2.8944;15.2764;-15.7978;-1.1815;-1.1915
2;-11.9103;9.6074;-19.9433;6.8309;-8.4054
3;5.7303;-1.2228;0.0000;6.9941;-0.0409
4;-0.2422;0.0000;0.0000;-0.2422;0.0000
5;-0.2099;0.0000;0.0000;-0.2099;0.0000
6;-2.9613;-1.2396;0.0000;-1.7217;0.0000
7;-0.0371;0.0000;0.0000;-0.0371;0.0000
8;0.0000;0.0000;0.0000;0.0000;0.0000
9;-0.0821;0.0000;0.0000;-0.0821;0.0000
10;0.0000;0.0000;0.0000;0.0000;0.0000
11;0.0000;0.0000;0.0000;0.0000;0.0000
12;-0.7870;9.3309;-9.4608;7.0104;-7.6675
13;-0.0881;0.0000;0.0000;-0.0881;0.0000
14;0.0000;0.0000;0.0000;0.0000;0.0000
15;-0.0469;0.0000;0.0000;-0.0469;0.0000
16;-3.2837;-1.9807;0.0000;-1.3030;0.0000
17;0.2848;1.1933;0.0000;-0.9085;0.0000
18;0.0000;0.0000;0.0000;0.0000;0.0000
19;-1.4975;-0.8506;0.0000;-0.6469;0.0000
20;0.0000;0.0000;0.0000;0.0000;0.0000
21;-3.8017;-2.0879;0.0000;-1.7138;0.0000
22;-7.2992;15.4568;-20.6076;12.4351;-14.5834

> <BIOSOLVEIT.HYDE_ESTIMATED_AFFINITY_LOWER_BOUNDARY [nM]>
648.987025

> <BIOSOLVEIT.HYDE_ESTIMATED_AFFINITY_UPPER_BOUNDARY [nM]>
64480.698041

> <BIOSOLVEIT.HYDE_LIGAND_EFFICIENCY>
0.330220

> <BIOSOLVEIT.HYDE_LIGAND_LIPOPHILIC_EFFICIENCY>
3.686867

> <BIOSOLVEIT.INTER_CLASH range: 0=green, 1=yellow, 2=red>
0

> <BIOSOLVEIT.INTRA_CLASH range: 0=green, 1=yellow, 2=red>
0

> <BIOSOLVEIT.LOGP>
1.5023

> <BIOSOLVEIT.MOLECULAR_WEIGHT>
317.366

> <BIOSOLVEIT.MOLECULE_CHECKSUM>
LTI5LjYxOTg7MC4zMzAyMg==

> <BIOSOLVEIT.TORSION_QUALITY range: 0=green/not rotatable, 1=yellow, 2=red>
0

> <BIOSOLVEIT.TPSA>
82.52

> <cleaned_smiles (canonical SMILES)>
NCc1cc(F)c(CNC(=O)c2cc3[s][n][n]c3cc2)cc1

> <BIOSOLVEIT.OPTIBRIUM.2C9 pKi>
4.94962

> <BIOSOLVEIT.OPTIBRIUM.2D6 affinity category>
low

> <BIOSOLVEIT.OPTIBRIUM.BBB category>
-

> <BIOSOLVEIT.OPTIBRIUM.BBB log([brain]:[blood])>
-0.948274

> <BIOSOLVEIT.OPTIBRIUM.hERG pIC50>
4.73522

> <BIOSOLVEIT.OPTIBRIUM.HIA category>
+

> <BIOSOLVEIT.OPTIBRIUM.logD>
0.341987

> <BIOSOLVEIT.OPTIBRIUM.logP>
1.57483

> <BIOSOLVEIT.OPTIBRIUM.logS @ pH7.4>
2.79092

> <BIOSOLVEIT.OPTIBRIUM.logS>
2.62406

> <BIOSOLVEIT.OPTIBRIUM.P-gp category>
no

> <BIOSOLVEIT.OPTIBRIUM.PPB90 category>
low

$$$$
no name_1_001
phSeeSAR  05142510573D 1   1.00000     0.00000     0
SeeSAR 14.1.2 pham.congdat
 37 38  0  0  0  0            999 V2000
   -2.7610   -5.2322   12.2320 O   0  0  0  0  0  0  0  0  0  0  0  0
   -3.3582   -4.1361   12.1224 C   0  0  0  0  0  0  0  0  0  0  0  0
   -4.4608   -4.0800   11.5297 O   0  5  0  0  0  0  0  0  0  0  0  0
   -2.7455   -2.8754   12.7080 C   0  0  2  0  0  0  0  0  0  0  0  0
   -2.5716   -1.8602   11.5865 C   0  0  0  0  0  0  0  0  0  0  0  0
   -3.1659   -2.0157   10.5152 O   0  0  0  0  0  0  0  0  0  0  0  0
   -1.7558   -0.7744   11.7659 N   0  0  0  0  0  0  0  0  0  0  0  0
   -1.5978    0.1477   10.7473 N   0  0  0  0  0  0  0  0  0  0  0  0
   -2.6853    0.8239   10.2606 C   0  0  0  0  0  0  0  0  0  0  0  0
   -3.8069    0.6100   10.7315 O   0  0  0  0  0  0  0  0  0  0  0  0
   -2.5117    1.8372    9.1411 C   0  0  0  0  0  0  0  0  0  0  0  0
   -1.5925    1.3321    8.1839 O   0  0  0  0  0  0  0  0  0  0  0  0
   -0.2913    1.8063    8.1557 C   0  0  0  0  0  0  0  0  0  0  0  0
    0.5446    1.4592    7.0992 C   0  0  0  0  0  0  0  0  0  0  0  0
    0.0736    0.6449    6.0841 O   0  5  0  0  0  0  0  0  0  0  0  0
    1.8539    1.9281    7.0599 C   0  0  0  0  0  0  0  0  0  0  0  0
    2.3194    2.7468    8.0841 C   0  0  0  0  0  0  0  0  0  0  0  0
    1.4819    3.0939    9.1390 C   0  0  0  0  0  0  0  0  0  0  0  0
    0.1723    2.6258    9.1802 C   0  0  0  0  0  0  0  0  0  0  0  0
   -1.4442   -3.1729   13.4319 C   0  0  0  0  0  0  0  0  0  0  0  0
   -1.3236   -2.3978   14.5061 C   0  0  0  0  0  0  0  0  0  0  0  0
   -2.5468   -1.5070   14.5775 C   0  0  0  0  0  0  0  0  0  0  0  0
   -3.5785   -2.3340   13.8457 C   0  0  0  0  0  0  0  0  0  0  0  0
   -1.2745   -0.6485   12.6333 H   0  0  0  0  0  0  0  0  0  0  0  0
   -0.6896    0.3208   10.3661 H   0  0  0  0  0  0  0  0  0  0  0  0
   -2.1377    2.7546    9.5452 H   0  0  0  0  0  0  0  0  0  0  0  0
   -3.4561    2.0136    8.6701 H   0  0  0  0  0  0  0  0  0  0  0  0
    2.4980    1.6611    6.2483 H   0  0  0  0  0  0  0  0  0  0  0  0
    3.3253    3.1108    8.0601 H   0  0  0  0  0  0  0  0  0  0  0  0
    1.8466    3.7243    9.9229 H   0  0  0  0  0  0  0  0  0  0  0  0
   -0.4719    2.8933    9.9916 H   0  0  0  0  0  0  0  0  0  0  0  0
   -0.7259   -3.9028   13.1219 H   0  0  0  0  0  0  0  0  0  0  0  0
   -0.5070   -2.4025   15.1974 H   0  0  0  0  0  0  0  0  0  0  0  0
   -2.3767   -0.5724   14.0851 H   0  0  0  0  0  0  0  0  0  0  0  0
   -2.8392   -1.3282   15.5912 H   0  0  0  0  0  0  0  0  0  0  0  0
   -3.9634   -3.1198   14.4616 H   0  0  0  0  0  0  0  0  0  0  0  0
   -4.3876   -1.7308   13.4901 H   0  0  0  0  0  0  0  0  0  0  0  0
  1  2  2  0  0  0  0
  2  3  1  0  0  0  0
  2  4  1  0  0  0  0
  4  5  1  0  0  0  0
  4 20  1  0  0  0  0
  4 23  1  0  0  0  0
  5  6  2  0  0  0  0
  5  7  1  0  0  0  0
  7  8  1  0  0  0  0
  8  9  1  0  0  0  0
  9 10  2  0  0  0  0
  9 11  1  0  0  0  0
 11 12  1  0  0  0  0
 12 13  1  0  0  0  0
 13 14  1  0  0  0  0
 13 19  2  0  0  0  0
 14 15  1  0  0  0  0
 14 16  2  0  0  0  0
 16 17  1  0  0  0  0
 17 18  2  0  0  0  0
 18 19  1  0  0  0  0
 20 21  2  0  0  0  0
 21 22  1  0  0  0  0
 22 23  1  0  0  0  0
 23 37  1  0  0  0  0
  7 24  1  0  0  0  0
  8 25  1  0  0  0  0
 11 26  1  0  0  0  0
 11 27  1  0  0  0  0
 23 36  1  0  0  0  0
 16 28  1  0  0  0  0
 17 29  1  0  0  0  0
 18 30  1  0  0  0  0
 19 31  1  0  0  0  0
 20 32  1  0  0  0  0
 21 33  1  0  0  0  0
 22 34  1  0  0  0  0
 22 35  1  0  0  0  0
M  CHG  2   3  -1  15  -1
M  END
> <BIOSOLVEIT.HYDE_ATOM_SCORES [kJ/mol]>
# Atom-ID; Total; Rec-Desolv; Rec-IA; Lig-Desolv; Lig-IA
1;0.1047;0.1447;0.0000;-0.0400;0.0000
2;-0.2433;0.0000;0.0000;-0.2433;0.0000
3;-3.0695;6.0770;-8.2199;4.0825;-5.0091
4;0.0000;0.0000;0.0000;0.0000;0.0000
5;0.0000;0.0000;0.0000;0.0000;0.0000
6;-2.4169;5.6357;-8.1322;10.1138;-10.0343
7;-0.0682;0.0000;0.0000;-0.0682;0.0000
8;-0.0748;0.0000;0.0000;-0.0748;0.0000
9;-1.4496;-1.0322;0.0000;-0.4174;0.0000
10;-4.0949;13.8291;-15.9908;10.3151;-12.2483
11;6.2418;8.1753;0.0000;-1.9335;0.0000
12;-11.4095;10.0000;-19.9985;3.7254;-5.1363
13;-0.1444;0.0000;0.0000;-0.1444;0.0000
14;-0.2246;0.0000;0.0000;-0.2246;0.0000
15;-13.5965;7.9831;-19.9978;3.5543;-5.1361
16;-0.0614;0.0000;0.0000;-0.0614;0.0000
17;0.0000;0.0000;0.0000;0.0000;0.0000
18;-0.2329;0.0000;0.0000;-0.2329;0.0000
19;-0.0778;0.5720;0.0000;-0.6498;0.0000
20;0.0000;0.0000;0.0000;0.0000;0.0000
21;0.0000;0.0000;0.0000;0.0000;0.0000
22;-0.7622;-0.0798;0.0000;-0.6824;0.0000
23;-2.4986;-1.6625;0.0000;-0.8362;0.0000

> <BIOSOLVEIT.HYDE_ESTIMATED_AFFINITY_LOWER_BOUNDARY [nM]>
81.788067

> <BIOSOLVEIT.HYDE_ESTIMATED_AFFINITY_UPPER_BOUNDARY [nM]>
8126.128017

> <BIOSOLVEIT.HYDE_LIGAND_EFFICIENCY>
0.370617

> <BIOSOLVEIT.HYDE_LIGAND_LIPOPHILIC_EFFICIENCY>
7.716013

> <BIOSOLVEIT.INTER_CLASH range: 0=green, 1=yellow, 2=red>
0

> <BIOSOLVEIT.INTRA_CLASH range: 0=green, 1=yellow, 2=red>
1

> <BIOSOLVEIT.LOGP>
-1.6273

> <BIOSOLVEIT.MOLECULAR_WEIGHT>
318.284

> <BIOSOLVEIT.MOLECULE_CHECKSUM>
LTM0Ljc1NDQ7MC4zNzA2MTc=

> <BIOSOLVEIT.TORSION_QUALITY range: 0=green/not rotatable, 1=yellow, 2=red>
1

> <BIOSOLVEIT.TPSA>
130.62

> <cleaned_smiles (canonical SMILES)>
OC(=O)C1(CCC=C1)C(=O)NNC(=O)COc1ccccc1O

> <BIOSOLVEIT.OPTIBRIUM.2C9 pKi>
4.48437

> <BIOSOLVEIT.OPTIBRIUM.2D6 affinity category>
low

> <BIOSOLVEIT.OPTIBRIUM.BBB category>
-

> <BIOSOLVEIT.OPTIBRIUM.BBB log([brain]:[blood])>
-1.22873

> <BIOSOLVEIT.OPTIBRIUM.hERG pIC50>
2.04925

> <BIOSOLVEIT.OPTIBRIUM.HIA category>
-

> <BIOSOLVEIT.OPTIBRIUM.logD>
-1.10455

> <BIOSOLVEIT.OPTIBRIUM.logP>
0.56133

> <BIOSOLVEIT.OPTIBRIUM.logS @ pH7.4>
4.24643

> <BIOSOLVEIT.OPTIBRIUM.logS>
3.33478

> <BIOSOLVEIT.OPTIBRIUM.P-gp category>
no

> <BIOSOLVEIT.OPTIBRIUM.PPB90 category>
low

$$$$
no name_1_010
phSeeSAR  05142510573D 1   1.00000     0.00000     0
SeeSAR 14.1.2 pham.congdat
 36 37  0  0  0  0            999 V2000
   -2.7974    1.0338    9.6276 S   0  0  0  0  0  0  0  0  0  0  0  0
   -3.1441    0.6438    8.2855 O   0  0  0  0  0  0  0  0  0  0  0  0
   -3.9993    1.2779   10.3823 O   0  0  0  0  0  0  0  0  0  0  0  0
   -1.9434   -0.1601   10.3370 N   0  0  0  0  0  0  0  0  0  0  0  0
   -2.7793   -0.9542   11.2342 C   0  0  0  0  0  0  0  0  0  0  0  0
   -1.5873   -1.0204   12.1659 C   0  0  0  0  0  0  0  0  0  0  0  0
   -1.9370   -0.9283   13.5927 N   0  0  0  0  0  0  0  0  0  0  0  0
   -2.6554   -1.8831   14.1607 C   0  0  0  0  0  0  0  0  0  0  0  0
   -3.0326   -2.8516   13.4938 O   0  0  0  0  0  0  0  0  0  0  0  0
   -3.0166   -1.7879   15.6341 C   0  0  2  0  0  0  0  0  0  0  0  0
   -1.9360   -1.4558   16.3348 F   0  0  0  0  0  0  0  0  0  0  0  0
   -3.5049   -3.0432   16.0838 O   0  0  0  0  0  0  0  0  0  0  0  0
   -4.3268   -3.1081   17.1961 C   0  0  0  0  0  0  0  0  0  0  0  0
   -4.6983   -1.9604   17.8883 C   0  0  0  0  0  0  0  0  0  0  0  0
   -5.4951   -2.0427   18.9645 N   0  0  0  0  0  0  0  0  0  0  0  0
   -5.9558   -3.2231   19.4043 C   0  0  0  0  0  0  0  0  0  0  0  0
   -5.6191   -4.4055   18.7536 C   0  0  0  0  0  0  0  0  0  0  0  0
   -4.7938   -4.3419   17.6361 C   0  0  0  0  0  0  0  0  0  0  0  0
   -1.2660    0.3160   11.5423 C   0  0  0  0  0  0  0  0  0  0  0  0
   -0.5975   -2.1362   11.8564 C   0  0  0  0  0  0  0  0  0  0  0  0
   -1.8981    2.3926    9.5836 N   0  0  0  0  0  0  0  0  0  0  0  0
   -3.0900   -1.8981   10.8376 H   0  0  0  0  0  0  0  0  0  0  0  0
   -3.6281   -0.4366   11.6298 H   0  0  0  0  0  0  0  0  0  0  0  0
   -1.6316   -0.1440   14.1327 H   0  0  0  0  0  0  0  0  0  0  0  0
   -3.7721   -1.0423   15.7688 H   0  0  0  0  0  0  0  0  0  0  0  0
   -4.3460   -1.0048   17.5601 H   0  0  0  0  0  0  0  0  0  0  0  0
   -6.5896   -3.2556   20.2658 H   0  0  0  0  0  0  0  0  0  0  0  0
   -5.9880   -5.3461   19.1062 H   0  0  0  0  0  0  0  0  0  0  0  0
   -4.5198   -5.2370   17.1179 H   0  0  0  0  0  0  0  0  0  0  0  0
   -1.7333    1.1540   12.0160 H   0  0  0  0  0  0  0  0  0  0  0  0
   -0.2214    0.5123   11.4197 H   0  0  0  0  0  0  0  0  0  0  0  0
    0.2065   -2.1056   12.5617 H   0  0  0  0  0  0  0  0  0  0  0  0
   -1.0941   -3.0818   11.9223 H   0  0  0  0  0  0  0  0  0  0  0  0
   -0.2099   -2.0051   10.8678 H   0  0  0  0  0  0  0  0  0  0  0  0
   -0.9298    2.1498    9.5252 H   0  0  0  0  0  0  0  0  0  0  0  0
   -2.1543    2.9361    8.7841 H   0  0  0  0  0  0  0  0  0  0  0  0
  1  2  2  0  0  0  0
  1  3  2  0  0  0  0
  1  4  1  0  0  0  0
  1 21  1  0  0  0  0
  4  5  1  0  0  0  0
  4 19  1  0  0  0  0
  5  6  1  0  0  0  0
  6  7  1  0  0  0  0
  6 19  1  0  0  0  0
  6 20  1  0  0  0  0
  7  8  1  0  0  0  0
  8  9  2  0  0  0  0
  8 10  1  0  0  0  0
 10 11  1  0  0  0  0
 10 12  1  0  0  0  0
 12 13  1  0  0  0  0
 13 14  2  0  0  0  0
 13 18  1  0  0  0  0
 14 15  1  0  0  0  0
 15 16  2  0  0  0  0
 16 17  1  0  0  0  0
 17 18  2  0  0  0  0
  5 22  1  0  0  0  0
  5 23  1  0  0  0  0
  7 24  1  0  0  0  0
 10 25  1  0  0  0  0
 14 26  1  0  0  0  0
 16 27  1  0  0  0  0
 17 28  1  0  0  0  0
 18 29  1  0  0  0  0
 19 30  1  0  0  0  0
 19 31  1  0  0  0  0
 20 32  1  0  0  0  0
 20 33  1  0  0  0  0
 20 34  1  0  0  0  0
 21 35  1  0  0  0  0
 21 36  1  0  0  0  0
M  END
> <BIOSOLVEIT.HYDE_ATOM_SCORES [kJ/mol]>
# Atom-ID; Total; Rec-Desolv; Rec-IA; Lig-Desolv; Lig-IA
1;-0.1092;0.0000;0.0000;-0.1092;0.0000
2;-10.0409;8.7129;-18.1904;3.0474;-3.6107
3;-3.8745;16.8760;-18.7165;3.0337;-5.0678
4;3.5702;-1.5746;0.0000;5.1448;0.0000
5;-3.2865;-1.3767;0.0000;-1.9098;0.0000
6;0.0000;0.0000;0.0000;0.0000;0.0000
7;-0.0472;0.0320;0.0000;-0.0792;0.0000
8;-0.2645;0.0000;0.0000;-0.2645;0.0000
9;1.2078;0.5210;0.0000;0.6868;0.0000
10;-0.2681;0.0000;0.0000;-0.2681;0.0000
11;0.0000;0.0000;0.0000;0.0000;0.0000
12;0.5020;0.0000;0.0000;0.5020;0.0000
13;0.0000;0.0000;0.0000;0.0000;0.0000
14;0.0000;0.0000;0.0000;0.0000;0.0000
15;0.0000;0.0000;0.0000;0.0000;0.0000
16;-0.0417;0.0000;0.0000;-0.0417;0.0000
17;-0.4757;-0.0155;0.0000;-0.4602;0.0000
18;-1.9822;-1.2284;0.0000;-0.7537;0.0000
19;-2.0374;-1.2981;0.0000;-0.7393;0.0000
20;-0.0699;0.4833;0.0000;-0.5532;0.0000
21;-2.6341;7.5180;-8.4289;10.4675;-12.1907

> <BIOSOLVEIT.HYDE_ESTIMATED_AFFINITY_LOWER_BOUNDARY [nM]>
24145.878409

> <BIOSOLVEIT.HYDE_ESTIMATED_AFFINITY_UPPER_BOUNDARY [nM]>
2399035.781651

> <BIOSOLVEIT.HYDE_LIGAND_EFFICIENCY>
0.241237

> <BIOSOLVEIT.HYDE_LIGAND_LIPOPHILIC_EFFICIENCY>
3.817960

> <BIOSOLVEIT.INTER_CLASH range: 0=green, 1=yellow, 2=red>
0

> <BIOSOLVEIT.INTRA_CLASH range: 0=green, 1=yellow, 2=red>
0

> <BIOSOLVEIT.LOGP>
-0.1994

> <BIOSOLVEIT.MOLECULAR_WEIGHT>
318.327

> <BIOSOLVEIT.MOLECULE_CHECKSUM>
LTIwLjY1NDg7MC4yNDEyMzc=

> <BIOSOLVEIT.TORSION_QUALITY range: 0=green/not rotatable, 1=yellow, 2=red>
1

> <BIOSOLVEIT.TPSA>
114.62

> <cleaned_smiles (canonical SMILES)>
CC1(CN(C1)S(N)(=O)=O)NC(=O)C(F)Oc1c[n]ccc1

> <BIOSOLVEIT.OPTIBRIUM.2C9 pKi>
3.99396

> <BIOSOLVEIT.OPTIBRIUM.2D6 affinity category>
low

> <BIOSOLVEIT.OPTIBRIUM.BBB category>
-

> <BIOSOLVEIT.OPTIBRIUM.BBB log([brain]:[blood])>
-0.87234

> <BIOSOLVEIT.OPTIBRIUM.hERG pIC50>
3.60505

> <BIOSOLVEIT.OPTIBRIUM.HIA category>
-

> <BIOSOLVEIT.OPTIBRIUM.logD>
-1.01976

> <BIOSOLVEIT.OPTIBRIUM.logP>
-1.01976

> <BIOSOLVEIT.OPTIBRIUM.logS @ pH7.4>
3.49467

> <BIOSOLVEIT.OPTIBRIUM.logS>
3.49467

> <BIOSOLVEIT.OPTIBRIUM.P-gp category>
no

> <BIOSOLVEIT.OPTIBRIUM.PPB90 category>
low

$$$$
no name_1_009
phSeeSAR  05142510573D 1   1.00000     0.00000     0
SeeSAR 14.1.2 pham.congdat
 44 45  0  0  0  0            999 V2000
    0.0936    0.4237   12.9582 F   0  0  0  0  0  0  0  0  0  0  0  0
   -1.0690   -0.1231   13.3023 C   0  0  0  0  0  0  0  0  0  0  0  0
   -1.2722   -0.6275   14.6842 C   0  0  0  0  0  0  0  0  0  0  0  0
   -0.7906   -1.7132   15.0223 O   0  0  0  0  0  0  0  0  0  0  0  0
   -1.9692    0.0864   15.5531 N   0  0  0  0  0  0  0  0  0  0  0  0
   -2.1703   -0.4130   16.9211 C   0  0  0  0  0  0  0  0  0  0  0  0
   -3.4868   -1.1689   16.9960 C   0  0  0  0  0  0  0  0  0  0  0  0
   -4.4377   -0.9995   15.9948 C   0  0  0  0  0  0  0  0  0  0  0  0
   -5.6379   -1.6978   16.0739 C   0  0  0  0  0  0  0  0  0  0  0  0
   -5.8758   -2.5528   17.1454 C   0  0  0  0  0  0  0  0  0  0  0  0
   -4.9230   -2.7203   18.1450 C   0  0  0  0  0  0  0  0  0  0  0  0
   -3.7211   -2.0233   18.0683 C   0  0  0  0  0  0  0  0  0  0  0  0
   -7.1927   -3.3083   17.2178 C   0  0  0  0  0  0  0  0  0  0  0  0
   -7.0011   -4.6764   16.7154 N   0  3  0  0  0  0  0  0  0  0  0  0
   -5.7464   -4.7473   15.9529 C   0  0  0  0  0  0  0  0  0  0  0  0
   -6.9391   -5.6104   17.8490 C   0  0  0  0  0  0  0  0  0  0  0  0
   -2.0532   -0.2185   12.4054 C   0  0  0  0  0  0  0  0  0  0  0  0
   -1.8500    0.2859   11.0236 C   0  0  0  0  0  0  0  0  0  0  0  0
   -1.3265    1.4442   10.6886 N   0  0  0  0  0  0  0  0  0  0  0  0
   -1.3254    1.5084    9.3249 N   0  0  0  0  0  0  0  0  0  0  0  0
   -1.8648    0.3645    8.8080 N   0  0  0  0  0  0  0  0  0  0  0  0
   -2.1945   -0.4130    9.8192 C   0  0  0  0  0  0  0  0  0  0  0  0
   -0.8153    2.6336    8.5246 C   0  0  0  0  0  0  0  0  0  0  0  0
   -2.3591    0.9655   15.2794 H   0  0  0  0  0  0  0  0  0  0  0  0
   -2.1935    0.4119   17.6021 H   0  0  0  0  0  0  0  0  0  0  0  0
   -1.3668   -1.0693   17.1829 H   0  0  0  0  0  0  0  0  0  0  0  0
   -4.2479   -0.3400   15.1739 H   0  0  0  0  0  0  0  0  0  0  0  0
   -6.3782   -1.5774   15.3108 H   0  0  0  0  0  0  0  0  0  0  0  0
   -5.1127   -3.3796   18.9661 H   0  0  0  0  0  0  0  0  0  0  0  0
   -2.9804   -2.1441   18.8310 H   0  0  0  0  0  0  0  0  0  0  0  0
   -7.9245   -2.8076   16.6188 H   0  0  0  0  0  0  0  0  0  0  0  0
   -7.5275   -3.3449   18.2334 H   0  0  0  0  0  0  0  0  0  0  0  0
   -5.6070   -5.7432   15.5873 H   0  0  0  0  0  0  0  0  0  0  0  0
   -5.7916   -4.0675   15.1279 H   0  0  0  0  0  0  0  0  0  0  0  0
   -4.9273   -4.4828   16.5886 H   0  0  0  0  0  0  0  0  0  0  0  0
   -6.7996   -6.6063   17.4833 H   0  0  0  0  0  0  0  0  0  0  0  0
   -6.1200   -5.3458   18.4846 H   0  0  0  0  0  0  0  0  0  0  0  0
   -7.8524   -5.5589   18.4040 H   0  0  0  0  0  0  0  0  0  0  0  0
   -2.9885   -0.6584   12.6823 H   0  0  0  0  0  0  0  0  0  0  0  0
   -2.6370   -1.3851    9.7541 H   0  0  0  0  0  0  0  0  0  0  0  0
   -0.9364    2.4151    7.4842 H   0  0  0  0  0  0  0  0  0  0  0  0
   -1.3610    3.5210    8.7686 H   0  0  0  0  0  0  0  0  0  0  0  0
    0.2223    2.7825    8.7394 H   0  0  0  0  0  0  0  0  0  0  0  0
   -7.7667   -4.9236   16.1214 H   0  0  0  0  0  0  0  0  0  0  0  0
  1  2  1  0  0  0  0
  2  3  1  0  0  0  0
  2 17  2  0  0  0  0
  3  4  2  0  0  0  0
  3  5  1  0  0  0  0
  5  6  1  0  0  0  0
  6  7  1  0  0  0  0
  7  8  2  0  0  0  0
  7 12  1  0  0  0  0
  8  9  1  0  0  0  0
  9 10  2  0  0  0  0
 10 11  1  0  0  0  0
 10 13  1  0  0  0  0
 11 12  2  0  0  0  0
 13 14  1  0  0  0  0
 14 15  1  0  0  0  0
 14 16  1  0  0  0  0
 17 18  1  0  0  0  0
 18 19  2  0  0  0  0
 18 22  1  0  0  0  0
 19 20  1  0  0  0  0
 20 21  1  0  0  0  0
 20 23  1  0  0  0  0
 21 22  2  0  0  0  0
  5 24  1  0  0  0  0
  6 25  1  0  0  0  0
  6 26  1  0  0  0  0
  8 27  1  0  0  0  0
  9 28  1  0  0  0  0
 11 29  1  0  0  0  0
 12 30  1  0  0  0  0
 13 31  1  0  0  0  0
 13 32  1  0  0  0  0
 15 33  1  0  0  0  0
 15 34  1  0  0  0  0
 15 35  1  0  0  0  0
 16 36  1  0  0  0  0
 16 37  1  0  0  0  0
 16 38  1  0  0  0  0
 17 39  1  0  0  0  0
 22 40  1  0  0  0  0
 23 41  1  0  0  0  0
 23 42  1  0  0  0  0
 23 43  1  0  0  0  0
 14 44  1  0  0  0  0
M  CHG  1  14   1
M  END
> <BIOSOLVEIT.HYDE_ATOM_SCORES [kJ/mol]>
# Atom-ID; Total; Rec-Desolv; Rec-IA; Lig-Desolv; Lig-IA
1;-0.1233;0.0000;0.0000;-0.1233;0.0000
2;-0.2499;0.0000;0.0000;-0.2499;0.0000
3;0.0000;0.0000;0.0000;0.0000;0.0000
4;0.0000;0.0000;0.0000;0.0000;0.0000
5;-2.3841;9.4476;-10.3996;6.9962;-8.4283
6;-0.0191;0.0000;0.0000;-0.0191;0.0000
7;0.0000;0.0000;0.0000;0.0000;0.0000
8;-1.1015;0.0000;0.0000;-1.1015;0.0000
9;-2.7545;-1.9554;0.0000;-0.7991;0.0000
10;0.0000;0.0000;0.0000;0.0000;0.0000
11;0.0000;0.0000;0.0000;0.0000;0.0000
12;0.0000;0.0000;0.0000;0.0000;0.0000
13;-2.6822;-1.3495;0.0000;-1.3327;0.0000
14;-3.6278;8.5994;-10.3998;10.3626;-12.1900
15;-2.3138;-0.6176;0.0000;-1.6963;0.0000
16;-3.4136;-1.1068;0.0000;-2.3068;0.0000
17;3.4511;4.9287;0.0000;-1.4775;0.0000
18;-0.0638;0.0000;0.0000;-0.0638;0.0000
19;2.8009;5.7141;-4.9344;6.9556;-4.9344
20;0.5501;0.5501;0.0000;0.0000;0.0000
21;-11.7892;9.5686;-19.9056;6.9373;-8.3895
22;-1.8652;-0.7717;0.0000;-1.0934;0.0000
23;-2.9427;-1.0225;0.0000;-1.9202;0.0000

> <BIOSOLVEIT.HYDE_ESTIMATED_AFFINITY_LOWER_BOUNDARY [nM]>
938.832608

> <BIOSOLVEIT.HYDE_ESTIMATED_AFFINITY_UPPER_BOUNDARY [nM]>
93278.570385

> <BIOSOLVEIT.HYDE_LIGAND_EFFICIENCY>
0.306102

> <BIOSOLVEIT.HYDE_LIGAND_LIPOPHILIC_EFFICIENCY>
4.942415

> <BIOSOLVEIT.INTER_CLASH range: 0=green, 1=yellow, 2=red>
0

> <BIOSOLVEIT.INTRA_CLASH range: 0=green, 1=yellow, 2=red>
0

> <BIOSOLVEIT.LOGP>
0.0864

> <BIOSOLVEIT.MOLECULAR_WEIGHT>
318.374

> <BIOSOLVEIT.MOLECULE_CHECKSUM>
LTI4LjcwNDU7MC4zMDYxMDI=

> <BIOSOLVEIT.TORSION_QUALITY range: 0=green/not rotatable, 1=yellow, 2=red>
0

> <BIOSOLVEIT.TPSA>
64.25

> <cleaned_smiles (canonical SMILES)>
CN(C)Cc1ccc(CNC(=O)C(F)=Cc2c[n][n](C)[n]2)cc1

> <BIOSOLVEIT.OPTIBRIUM.2C9 pKi>
4.52027

> <BIOSOLVEIT.OPTIBRIUM.2D6 affinity category>
low

> <BIOSOLVEIT.OPTIBRIUM.BBB category>
-

> <BIOSOLVEIT.OPTIBRIUM.BBB log([brain]:[blood])>
-0.484588

> <BIOSOLVEIT.OPTIBRIUM.hERG pIC50>
4.92489

> <BIOSOLVEIT.OPTIBRIUM.HIA category>
+

> <BIOSOLVEIT.OPTIBRIUM.logD>
-0.260946

> <BIOSOLVEIT.OPTIBRIUM.logP>
1.34117

> <BIOSOLVEIT.OPTIBRIUM.logS @ pH7.4>
2.81325

> <BIOSOLVEIT.OPTIBRIUM.logS>
4.25074

> <BIOSOLVEIT.OPTIBRIUM.P-gp category>
no

> <BIOSOLVEIT.OPTIBRIUM.PPB90 category>
low

$$$$
no name_1_001
phSeeSAR  05142510573D 1   1.00000     0.00000     0
SeeSAR 14.1.2 pham.congdat
 20 21  0  0  0  0            999 V2000
    4.4978    2.1389    8.0190 I   0  0  0  0  0  0  0  0  0  0  0  0
    2.5327    1.3294    7.6921 C   0  0  0  0  0  0  0  0  0  0  0  0
    1.9097    0.5712    8.6077 N   0  0  0  0  0  0  0  0  0  0  0  0
    0.6829    0.0699    8.3952 C   0  0  0  0  0  0  0  0  0  0  0  0
   -0.1373   -0.9327    9.6090 S   0  0  0  0  0  0  0  0  0  0  0  0
   -1.6955   -0.1012    9.7825 C   0  0  0  0  0  0  0  0  0  0  0  0
   -2.2437    0.7360    8.9322 N   0  0  0  0  0  0  0  0  0  0  0  0
   -3.4608    1.1736    9.4266 C   0  0  0  0  0  0  0  0  0  0  0  0
   -3.6549    0.5965   10.5911 N   0  0  0  0  0  0  0  0  0  0  0  0
   -2.5780   -0.2027   10.8390 N   0  0  0  0  0  0  0  0  0  0  0  0
   -2.3887   -1.0354   12.0362 C   0  0  0  0  0  0  0  0  0  0  0  0
    0.0461    0.3219    7.2424 N   0  0  0  0  0  0  0  0  0  0  0  0
    0.6173    1.0726    6.2900 C   0  0  0  0  0  0  0  0  0  0  0  0
    1.8879    1.6022    6.4906 C   0  0  0  0  0  0  0  0  0  0  0  0
   -4.1258    1.8602    8.9455 H   0  0  0  0  0  0  0  0  0  0  0  0
   -3.2292   -0.9192   12.6880 H   0  0  0  0  0  0  0  0  0  0  0  0
   -2.3012   -2.0617   11.7466 H   0  0  0  0  0  0  0  0  0  0  0  0
   -1.4980   -0.7312   12.5450 H   0  0  0  0  0  0  0  0  0  0  0  0
    0.0959    1.2645    5.3755 H   0  0  0  0  0  0  0  0  0  0  0  0
    2.3568    2.2037    5.7400 H   0  0  0  0  0  0  0  0  0  0  0  0
  1  2  1  0  0  0  0
  2  3  1  0  0  0  0
  2 14  2  0  0  0  0
  3  4  2  0  0  0  0
  4  5  1  0  0  0  0
  4 12  1  0  0  0  0
  5  6  1  0  0  0  0
  6  7  2  0  0  0  0
  6 10  1  0  0  0  0
  7  8  1  0  0  0  0
  8  9  2  0  0  0  0
  9 10  1  0  0  0  0
 10 11  1  0  0  0  0
 12 13  2  0  0  0  0
 13 14  1  0  0  0  0
  8 15  1  0  0  0  0
 11 16  1  0  0  0  0
 11 17  1  0  0  0  0
 11 18  1  0  0  0  0
 13 19  1  0  0  0  0
 14 20  1  0  0  0  0
M  END
> <BIOSOLVEIT.HYDE_ATOM_SCORES [kJ/mol]>
# Atom-ID; Total; Rec-Desolv; Rec-IA; Lig-Desolv; Lig-IA
1;0.0000;0.0000;0.0000;0.0000;0.0000
2;0.0000;0.0000;0.0000;0.0000;0.0000
3;0.0000;0.0000;0.0000;0.0000;0.0000
4;0.0000;0.0000;0.0000;0.0000;0.0000
5;-3.0330;-2.3845;0.0000;-0.6485;0.0000
6;-0.4077;0.0000;0.0000;-0.4077;0.0000
7;-11.3519;10.0039;-19.9207;6.9608;-8.3959
8;-2.1303;-0.2526;0.0000;-1.8777;0.0000
9;4.3542;16.6577;-10.6127;6.7377;-8.4285
10;-0.0790;0.0000;0.0000;-0.0790;0.0000
11;-1.3695;0.0421;0.0000;-1.4117;0.0000
12;-11.4505;10.0000;-19.9981;6.9760;-8.4285
13;-3.0996;-1.8447;0.0000;-1.2549;0.0000
14;-0.0799;0.0000;0.0000;-0.0799;0.0000

> <BIOSOLVEIT.HYDE_ESTIMATED_AFFINITY_LOWER_BOUNDARY [nM]>
776.914795

> <BIOSOLVEIT.HYDE_ESTIMATED_AFFINITY_UPPER_BOUNDARY [nM]>
77191.078392

> <BIOSOLVEIT.HYDE_LIGAND_EFFICIENCY>
0.511103

> <BIOSOLVEIT.HYDE_LIGAND_LIPOPHILIC_EFFICIENCY>
3.750130

> <BIOSOLVEIT.INTER_CLASH range: 0=green, 1=yellow, 2=red>
0

> <BIOSOLVEIT.INTRA_CLASH range: 0=green, 1=yellow, 2=red>
0

> <BIOSOLVEIT.LOGP>
1.3609

> <BIOSOLVEIT.MOLECULAR_WEIGHT>
319.124

> <BIOSOLVEIT.MOLECULE_CHECKSUM>
LTI5LjE3Mzg7MC41MTExMDM=

> <BIOSOLVEIT.TORSION_QUALITY range: 0=green/not rotatable, 1=yellow, 2=red>
0

> <BIOSOLVEIT.TPSA>
56.49

> <cleaned_smiles (canonical SMILES)>
C[n]1[n]c[n]c1Sc1[n]c(I)cc[n]1

> <BIOSOLVEIT.OPTIBRIUM.2C9 pKi>
4.3037

> <BIOSOLVEIT.OPTIBRIUM.2D6 affinity category>
low

> <BIOSOLVEIT.OPTIBRIUM.BBB category>
-

> <BIOSOLVEIT.OPTIBRIUM.BBB log([brain]:[blood])>
-0.307172

> <BIOSOLVEIT.OPTIBRIUM.hERG pIC50>
4.68943

> <BIOSOLVEIT.OPTIBRIUM.HIA category>
+

> <BIOSOLVEIT.OPTIBRIUM.logD>
1.87386

> <BIOSOLVEIT.OPTIBRIUM.logP>
1.87386

> <BIOSOLVEIT.OPTIBRIUM.logS @ pH7.4>
2.74523

> <BIOSOLVEIT.OPTIBRIUM.logS>
2.74523

> <BIOSOLVEIT.OPTIBRIUM.P-gp category>
no

> <BIOSOLVEIT.OPTIBRIUM.PPB90 category>
low

$$$$
no name_1_007
phSeeSAR  05142510573D 1   1.00000     0.00000     0
SeeSAR 14.1.2 pham.congdat
 38 39  0  0  0  0            999 V2000
   -3.6850    0.4360   10.5905 O   0  0  0  0  0  0  0  0  0  0  0  0
   -2.6995    0.2713    9.8344 C   0  0  0  0  0  0  0  0  0  0  0  0
   -2.8095    0.4889    8.6054 O   0  5  0  0  0  0  0  0  0  0  0  0
   -1.3703   -0.1927   10.4083 C   0  0  2  0  0  0  0  0  0  0  0  0
   -1.6252   -1.4064   11.2885 C   0  0  0  0  0  0  0  0  0  0  0  0
   -0.8863   -2.3926   11.2094 O   0  0  0  0  0  0  0  0  0  0  0  0
   -2.6746   -1.4056   12.1693 N   0  0  0  0  0  0  0  0  0  0  0  0
   -2.9064   -2.5093   12.9697 N   0  0  0  0  0  0  0  0  0  0  0  0
   -3.5819   -3.5902   12.4673 C   0  0  0  0  0  0  0  0  0  0  0  0
   -3.9837   -3.5789   11.2996 O   0  0  0  0  0  0  0  0  0  0  0  0
   -3.8366   -4.8032   13.3471 C   0  0  0  0  0  0  0  0  0  0  0  0
   -3.1248   -4.6606   14.5675 O   0  0  0  0  0  0  0  0  0  0  0  0
   -3.8048   -4.3503   15.7338 C   0  0  0  0  0  0  0  0  0  0  0  0
   -3.0900   -4.0969   16.9000 C   0  0  0  0  0  0  0  0  0  0  0  0
   -1.7072   -4.1553   16.8896 O   0  0  0  0  0  0  0  0  0  0  0  0
   -3.7612   -3.7851   18.0781 C   0  0  0  0  0  0  0  0  0  0  0  0
   -5.1514   -3.7279   18.0800 C   0  0  0  0  0  0  0  0  0  0  0  0
   -5.8644   -3.9801   16.9126 C   0  0  0  0  0  0  0  0  0  0  0  0
   -5.1950   -4.2924   15.7336 C   0  0  0  0  0  0  0  0  0  0  0  0
   -0.6627    0.9274   11.1503 C   0  0  0  0  0  0  0  0  0  0  0  0
    0.6522    0.8458   10.9683 C   0  0  0  0  0  0  0  0  0  0  0  0
    0.9270   -0.3548   10.0863 C   0  0  0  0  0  0  0  0  0  0  0  0
   -0.3673   -0.4787    9.3157 C   0  0  0  0  0  0  0  0  0  0  0  0
   -3.2730   -0.6069   12.2334 H   0  0  0  0  0  0  0  0  0  0  0  0
   -2.5810   -2.5184   13.9153 H   0  0  0  0  0  0  0  0  0  0  0  0
   -3.5050   -5.6863   12.8419 H   0  0  0  0  0  0  0  0  0  0  0  0
   -4.8839   -4.8815   13.5521 H   0  0  0  0  0  0  0  0  0  0  0  0
   -1.2298   -4.8043   17.4818 H   0  0  0  0  0  0  0  0  0  0  0  0
   -3.2125   -3.5908   18.9759 H   0  0  0  0  0  0  0  0  0  0  0  0
   -5.6739   -3.4889   18.9827 H   0  0  0  0  0  0  0  0  0  0  0  0
   -6.9334   -3.9338   16.9214 H   0  0  0  0  0  0  0  0  0  0  0  0
   -5.7438   -4.4861   14.8358 H   0  0  0  0  0  0  0  0  0  0  0  0
   -1.1527    1.6763   11.7367 H   0  0  0  0  0  0  0  0  0  0  0  0
    1.3863    1.5106   11.3734 H   0  0  0  0  0  0  0  0  0  0  0  0
    1.1177   -1.2310   10.6701 H   0  0  0  0  0  0  0  0  0  0  0  0
    1.7541   -0.1755    9.4316 H   0  0  0  0  0  0  0  0  0  0  0  0
   -0.4271    0.2416    8.5267 H   0  0  0  0  0  0  0  0  0  0  0  0
   -0.4934   -1.4614    8.9118 H   0  0  0  0  0  0  0  0  0  0  0  0
  1  2  2  0  0  0  0
  2  3  1  0  0  0  0
  2  4  1  0  0  0  0
  4  5  1  0  0  0  0
  4 20  1  0  0  0  0
  4 23  1  0  0  0  0
  5  6  2  0  0  0  0
  5  7  1  0  0  0  0
  7  8  1  0  0  0  0
  8  9  1  0  0  0  0
  9 10  2  0  0  0  0
  9 11  1  0  0  0  0
 11 12  1  0  0  0  0
 12 13  1  0  0  0  0
 13 14  1  0  0  0  0
 13 19  2  0  0  0  0
 14 15  1  0  0  0  0
 14 16  2  0  0  0  0
 16 17  1  0  0  0  0
 17 18  2  0  0  0  0
 18 19  1  0  0  0  0
 20 21  2  0  0  0  0
 21 22  1  0  0  0  0
 22 23  1  0  0  0  0
 23 38  1  0  0  0  0
  7 24  1  0  0  0  0
  8 25  1  0  0  0  0
 11 26  1  0  0  0  0
 11 27  1  0  0  0  0
 15 28  1  0  0  0  0
 16 29  1  0  0  0  0
 17 30  1  0  0  0  0
 18 31  1  0  0  0  0
 19 32  1  0  0  0  0
 20 33  1  0  0  0  0
 21 34  1  0  0  0  0
 22 35  1  0  0  0  0
 22 36  1  0  0  0  0
 23 37  1  0  0  0  0
M  CHG  1   3  -1
M  END
> <BIOSOLVEIT.HYDE_ATOM_SCORES [kJ/mol]>
# Atom-ID; Total; Rec-Desolv; Rec-IA; Lig-Desolv; Lig-IA
1;-2.1823;12.4880;-13.1752;4.1471;-5.6422
2;-0.4664;0.0000;0.0000;-0.4664;0.0000
3;-11.0134;9.7420;-19.9226;4.2841;-5.1168
4;0.0000;0.0000;0.0000;0.0000;0.0000
5;-0.1573;0.0000;0.0000;-0.1573;0.0000
6;0.0526;-0.2006;0.0000;0.2532;0.0000
7;-0.1469;0.0000;0.0000;-0.1469;0.0000
8;-0.0440;0.0000;0.0000;-0.0440;0.0000
9;-0.4160;0.0000;0.0000;-0.4160;0.0000
10;0.7529;9.2915;-8.4288;10.2903;-10.4002
11;-3.1466;-1.8484;0.0000;-1.2983;0.0000
12;-1.2442;-1.0951;0.0000;-0.1491;0.0000
13;-1.2105;-0.8756;0.0000;-0.3349;0.0000
14;-1.1639;-0.7199;0.0000;-0.4439;0.0000
15;-0.1232;0.0000;0.0000;-0.1232;0.0000
16;-0.2752;0.0000;0.0000;-0.2752;0.0000
17;-0.1082;0.0000;0.0000;-0.1082;0.0000
18;1.3783;1.8278;0.0000;-0.4494;0.0000
19;-0.0349;0.9456;0.0000;-0.9805;0.0000
20;1.3147;2.2105;0.0000;-0.8958;0.0000
21;-0.0197;0.0000;0.0000;-0.0197;0.0000
22;0.0000;0.0000;0.0000;0.0000;0.0000
23;-2.8036;-1.8922;0.0000;-0.9114;0.0000

> <BIOSOLVEIT.HYDE_ESTIMATED_AFFINITY_LOWER_BOUNDARY [nM]>
16361.705770

> <BIOSOLVEIT.HYDE_ESTIMATED_AFFINITY_UPPER_BOUNDARY [nM]>
1625632.206280

> <BIOSOLVEIT.HYDE_LIGAND_EFFICIENCY>
0.230548

> <BIOSOLVEIT.HYDE_LIGAND_LIPOPHILIC_EFFICIENCY>
4.782875

> <BIOSOLVEIT.INTER_CLASH range: 0=green, 1=yellow, 2=red>
0

> <BIOSOLVEIT.INTRA_CLASH range: 0=green, 1=yellow, 2=red>
0

> <BIOSOLVEIT.LOGP>
-0.9953

> <BIOSOLVEIT.MOLECULAR_WEIGHT>
319.292

> <BIOSOLVEIT.MOLECULE_CHECKSUM>
LTIxLjYxOTU7MC4yMzA1NDg=

> <BIOSOLVEIT.TORSION_QUALITY range: 0=green/not rotatable, 1=yellow, 2=red>
0

> <BIOSOLVEIT.TPSA>
127.79

> <cleaned_smiles (canonical SMILES)>
OC(=O)C1(CCC=C1)C(=O)NNC(=O)COc1ccccc1O

> <BIOSOLVEIT.OPTIBRIUM.2C9 pKi>
4.48437

> <BIOSOLVEIT.OPTIBRIUM.2D6 affinity category>
low

> <BIOSOLVEIT.OPTIBRIUM.BBB category>
-

> <BIOSOLVEIT.OPTIBRIUM.BBB log([brain]:[blood])>
-1.22873

> <BIOSOLVEIT.OPTIBRIUM.hERG pIC50>
2.04925

> <BIOSOLVEIT.OPTIBRIUM.HIA category>
-

> <BIOSOLVEIT.OPTIBRIUM.logD>
-1.10455

> <BIOSOLVEIT.OPTIBRIUM.logP>
0.56133

> <BIOSOLVEIT.OPTIBRIUM.logS @ pH7.4>
4.24643

> <BIOSOLVEIT.OPTIBRIUM.logS>
3.33478

> <BIOSOLVEIT.OPTIBRIUM.P-gp category>
no

> <BIOSOLVEIT.OPTIBRIUM.PPB90 category>
low

$$$$
no name_1_008
phSeeSAR  05142510573D 1   1.00000     0.00000     0
SeeSAR 14.1.2 pham.congdat
 36 37  0  0  0  0            999 V2000
    4.5010   -2.5797   13.9722 S   0  0  0  0  0  0  0  0  0  0  0  0
    3.1381   -3.7047   13.8038 C   0  0  0  0  0  0  0  0  0  0  0  0
    2.8224   -4.3841   12.7279 N   0  0  0  0  0  0  0  0  0  0  0  0
    1.6996   -5.1581   12.9621 C   0  0  0  0  0  0  0  0  0  0  0  0
    1.3149   -4.9348   14.2512 C   0  0  0  0  0  0  0  0  0  0  0  0
    2.2121   -4.0255   14.7789 N   0  0  0  0  0  0  0  0  0  0  0  0
    2.1857   -3.4908   16.1481 C   0  0  0  0  0  0  0  0  0  0  0  0
    5.4838   -2.9559   12.4997 C   0  0  0  0  0  0  0  0  0  0  0  0
    5.4556   -1.7661   11.5541 C   0  0  0  0  0  0  0  0  0  0  0  0
    4.0704   -1.3010   11.3931 N   0  0  0  0  0  0  0  0  0  0  0  0
    3.2175   -2.0026   10.6646 C   0  0  0  0  0  0  0  0  0  0  0  0
    3.5850   -3.0482   10.1198 O   0  0  0  0  0  0  0  0  0  0  0  0
    1.8182   -1.5328   10.5019 C   0  0  0  0  0  0  0  0  0  0  0  0
    1.0413   -1.3655   11.5746 C   0  0  0  0  0  0  0  0  0  0  0  0
   -0.3573   -0.8961   11.4119 C   0  0  0  0  0  0  0  0  0  0  0  0
   -1.3548   -1.1726   12.2544 O   0  0  0  0  0  0  0  0  0  0  0  0
   -2.4627   -0.5888   11.7942 C   0  0  0  0  0  0  0  0  0  0  0  0
   -2.1856    0.0762   10.6391 C   0  0  0  0  0  0  0  0  0  0  0  0
   -3.1441    0.8527    9.8130 C   0  0  0  0  0  0  0  0  0  0  0  0
   -4.1281    1.4098   10.3527 O   0  0  0  0  0  0  0  0  0  0  0  0
   -2.9691    0.9508    8.5761 O   0  5  0  0  0  0  0  0  0  0  0  0
   -0.7930   -0.1246   10.3778 C   0  0  0  0  0  0  0  0  0  0  0  0
    1.2217   -5.8107   12.2617 H   0  0  0  0  0  0  0  0  0  0  0  0
    0.4814   -5.3771   14.7557 H   0  0  0  0  0  0  0  0  0  0  0  0
    1.3598   -3.9142   16.6806 H   0  0  0  0  0  0  0  0  0  0  0  0
    3.0983   -3.7422   16.6469 H   0  0  0  0  0  0  0  0  0  0  0  0
    2.0797   -2.4266   16.1135 H   0  0  0  0  0  0  0  0  0  0  0  0
    5.0743   -3.8129   12.0069 H   0  0  0  0  0  0  0  0  0  0  0  0
    6.4942   -3.1589   12.7875 H   0  0  0  0  0  0  0  0  0  0  0  0
    5.8468   -2.0579   10.6019 H   0  0  0  0  0  0  0  0  0  0  0  0
    6.0527   -0.9754   11.9579 H   0  0  0  0  0  0  0  0  0  0  0  0
    3.7728   -0.4544   11.8343 H   0  0  0  0  0  0  0  0  0  0  0  0
    1.4327   -1.3285    9.5249 H   0  0  0  0  0  0  0  0  0  0  0  0
    1.4268   -1.5698   12.5516 H   0  0  0  0  0  0  0  0  0  0  0  0
   -3.4237   -0.6362   12.2621 H   0  0  0  0  0  0  0  0  0  0  0  0
   -0.2215    0.2484    9.5537 H   0  0  0  0  0  0  0  0  0  0  0  0
  1  2  1  0  0  0  0
  1  8  1  0  0  0  0
  2  3  2  0  0  0  0
  2  6  1  0  0  0  0
  3  4  1  0  0  0  0
  4  5  2  0  0  0  0
  5  6  1  0  0  0  0
  6  7  1  0  0  0  0
  8  9  1  0  0  0  0
  9 10  1  0  0  0  0
 10 11  1  0  0  0  0
 11 12  2  0  0  0  0
 11 13  1  0  0  0  0
 13 14  2  0  0  0  0
 14 15  1  0  0  0  0
 15 16  1  0  0  0  0
 15 22  2  0  0  0  0
 16 17  1  0  0  0  0
 17 18  2  0  0  0  0
 18 19  1  0  0  0  0
 18 22  1  0  0  0  0
 19 20  2  0  0  0  0
 19 21  1  0  0  0  0
  4 23  1  0  0  0  0
  5 24  1  0  0  0  0
  7 25  1  0  0  0  0
  7 26  1  0  0  0  0
  7 27  1  0  0  0  0
  8 28  1  0  0  0  0
  8 29  1  0  0  0  0
  9 30  1  0  0  0  0
  9 31  1  0  0  0  0
 10 32  1  0  0  0  0
 13 33  1  0  0  0  0
 14 34  1  0  0  0  0
 17 35  1  0  0  0  0
 22 36  1  0  0  0  0
M  CHG  1  21  -1
M  END
> <BIOSOLVEIT.HYDE_ATOM_SCORES [kJ/mol]>
# Atom-ID; Total; Rec-Desolv; Rec-IA; Lig-Desolv; Lig-IA
1;-0.1788;0.2754;0.0000;-0.4543;0.0000
2;-0.1488;0.0000;0.0000;-0.1488;0.0000
3;-0.0939;0.0000;0.0000;-0.0939;0.0000
4;-2.0090;-1.0493;0.0000;-0.9596;0.0000
5;-0.9642;-0.3562;0.0000;-0.6080;0.0000
6;0.0000;0.0000;0.0000;0.0000;0.0000
7;-0.5352;-0.0564;0.0000;-0.4788;0.0000
8;-0.7289;0.0000;0.0000;-0.7289;0.0000
9;-0.2222;0.0000;0.0000;-0.2222;0.0000
10;0.0000;0.0000;0.0000;0.0000;0.0000
11;0.0000;0.0000;0.0000;0.0000;0.0000
12;-3.8682;5.7129;-8.3390;9.0474;-10.2895
13;-0.0915;0.0000;0.0000;-0.0915;0.0000
14;0.0000;0.0000;0.0000;0.0000;0.0000
15;-0.0347;0.0000;0.0000;-0.0347;0.0000
16;0.0047;0.0047;0.0000;0.0000;0.0000
17;-1.8527;-0.5739;0.0000;-1.2789;0.0000
18;-0.4096;0.0000;0.0000;-0.4096;0.0000
19;-0.5052;0.0000;0.0000;-0.5052;0.0000
20;2.6816;25.5452;-20.6170;3.9166;-6.1633
21;-11.8045;8.7247;-19.8367;4.4023;-5.0948
22;-1.9426;-1.3101;0.0000;-0.6325;0.0000

> <BIOSOLVEIT.HYDE_ESTIMATED_AFFINITY_LOWER_BOUNDARY [nM]>
9603.012488

> <BIOSOLVEIT.HYDE_ESTIMATED_AFFINITY_UPPER_BOUNDARY [nM]>
954116.068188

> <BIOSOLVEIT.HYDE_LIGAND_EFFICIENCY>
0.255754

> <BIOSOLVEIT.HYDE_LIGAND_LIPOPHILIC_EFFICIENCY>
3.720696

> <BIOSOLVEIT.INTER_CLASH range: 0=green, 1=yellow, 2=red>
0

> <BIOSOLVEIT.INTRA_CLASH range: 0=green, 1=yellow, 2=red>
0

> <BIOSOLVEIT.LOGP>
0.2983

> <BIOSOLVEIT.MOLECULAR_WEIGHT>
320.347

> <BIOSOLVEIT.MOLECULE_CHECKSUM>
LTIyLjk0MDU7MC4yNTU3NTQ=

> <BIOSOLVEIT.TORSION_QUALITY range: 0=green/not rotatable, 1=yellow, 2=red>
1

> <BIOSOLVEIT.TPSA>
100.19

> <cleaned_smiles (canonical SMILES)>
C[n]1cc[n]c1SCCNC(=O)C=Cc1cc(co1)C(O)=O

$$$$
no name_1_002
phSeeSAR  05142510573D 1   1.00000     0.00000     0
SeeSAR 14.1.2 pham.congdat
 36 37  0  0  0  0            999 V2000
   -1.2856   -3.1968   15.9798 F   0  0  0  0  0  0  0  0  0  0  0  0
   -0.3622   -2.5403   15.2834 C   0  0  0  0  0  0  0  0  0  0  0  0
    0.6214   -3.3733   14.9556 F   0  0  0  0  0  0  0  0  0  0  0  0
    0.1257   -1.5465   16.0206 F   0  0  0  0  0  0  0  0  0  0  0  0
   -0.9889   -1.9729   14.0187 C   0  0  0  0  0  0  0  0  0  0  0  0
   -2.0035   -1.0992   14.1156 N   0  0  0  0  0  0  0  0  0  0  0  0
   -2.5889   -0.5703   13.0298 C   0  0  0  0  0  0  0  0  0  0  0  0
   -2.1463   -0.9242   11.7586 C   0  0  0  0  0  0  0  0  0  0  0  0
   -1.0947   -1.8308   11.6826 C   0  0  0  0  0  0  0  0  0  0  0  0
   -0.5468   -2.3273   12.8017 N   0  0  0  0  0  0  0  0  0  0  0  0
   -2.7878   -0.3440   10.5051 C   0  0  1  0  0  0  0  0  0  0  0  0
   -3.8228    0.5547   10.8756 O   0  0  0  0  0  0  0  0  0  0  0  0
   -1.7373    0.3990    9.6960 C   0  0  0  0  0  0  0  0  0  0  0  0
   -1.8038    0.4134    8.4628 O   0  0  0  0  0  0  0  0  0  0  0  0
   -0.7517    1.0303   10.3125 N   0  0  0  0  0  0  0  0  0  0  0  0
    0.2643    1.7489    9.5300 C   0  0  0  0  0  0  0  0  0  0  0  0
    1.4173    0.8087    9.2108 C   0  0  1  0  0  0  0  0  0  0  0  0
    2.1937    0.6426   10.2769 F   0  0  0  0  0  0  0  0  0  0  0  0
    1.0877   -0.4896    8.5149 C   0  0  0  0  0  0  0  0  0  0  0  0
    1.2390    0.2179    7.1873 C   0  0  1  0  0  0  0  0  0  0  0  0
    0.0428    0.8785    6.6508 N   0  0  0  0  0  0  0  0  0  0  0  0
    2.2084    1.0891    7.9546 C   0  0  0  0  0  0  0  0  0  0  0  0
   -3.3958    0.1234   13.1414 H   0  0  0  0  0  0  0  0  0  0  0  0
   -0.7209   -2.1339   10.7270 H   0  0  0  0  0  0  0  0  0  0  0  0
   -3.1980   -1.1366    9.9147 H   0  0  0  0  0  0  0  0  0  0  0  0
   -3.6141    1.4670   10.5234 H   0  0  0  0  0  0  0  0  0  0  0  0
   -0.6979    1.0187   11.3110 H   0  0  0  0  0  0  0  0  0  0  0  0
    0.6284    2.5805   10.0965 H   0  0  0  0  0  0  0  0  0  0  0  0
   -0.1712    2.1016    8.6185 H   0  0  0  0  0  0  0  0  0  0  0  0
    0.1015   -0.8563    8.7093 H   0  0  0  0  0  0  0  0  0  0  0  0
    1.7985   -1.2720    8.6812 H   0  0  0  0  0  0  0  0  0  0  0  0
    1.7299   -0.3900    6.4564 H   0  0  0  0  0  0  0  0  0  0  0  0
    0.0415    1.8401    6.9254 H   0  0  0  0  0  0  0  0  0  0  0  0
    3.2128    0.7206    7.9741 H   0  0  0  0  0  0  0  0  0  0  0  0
    2.2112    2.1163    7.6548 H   0  0  0  0  0  0  0  0  0  0  0  0
    0.0473    0.8169    5.6528 H   0  0  0  0  0  0  0  0  0  0  0  0
  1  2  1  0  0  0  0
  2  3  1  0  0  0  0
  2  4  1  0  0  0  0
  2  5  1  0  0  0  0
  5  6  2  0  0  0  0
  5 10  1  0  0  0  0
  6  7  1  0  0  0  0
  7  8  2  0  0  0  0
  8  9  1  0  0  0  0
  8 11  1  0  0  0  0
  9 10  2  0  0  0  0
 11 12  1  0  0  0  0
 11 13  1  0  0  0  0
 13 14  2  0  0  0  0
 13 15  1  0  0  0  0
 15 16  1  0  0  0  0
 16 17  1  0  0  0  0
 17 18  1  0  0  0  0
 17 19  1  0  0  0  0
 17 22  1  0  0  0  0
 19 20  1  0  0  0  0
 20 21  1  0  0  0  0
 20 22  1  0  0  0  0
  7 23  1  0  0  0  0
  9 24  1  0  0  0  0
 11 25  1  0  0  0  0
 12 26  1  0  0  0  0
 15 27  1  0  0  0  0
 16 28  1  0  0  0  0
 16 29  1  0  0  0  0
 19 30  1  0  0  0  0
 19 31  1  0  0  0  0
 20 32  1  0  0  0  0
 21 36  1  0  0  0  0
 21 33  1  0  0  0  0
 22 34  1  0  0  0  0
 22 35  1  0  0  0  0
M  END
> <BIOSOLVEIT.HYDE_ATOM_SCORES [kJ/mol]>
# Atom-ID; Total; Rec-Desolv; Rec-IA; Lig-Desolv; Lig-IA
1;0.0000;0.0000;0.0000;0.0000;0.0000
2;0.0000;0.0000;0.0000;0.0000;0.0000
3;0.0000;0.0000;0.0000;0.0000;0.0000
4;0.0000;0.0000;0.0000;0.0000;0.0000
5;0.0000;0.0000;0.0000;0.0000;0.0000
6;0.0000;0.0000;0.0000;0.0000;0.0000
7;-2.7265;-1.3091;0.0000;-1.4174;0.0000
8;0.0000;0.0000;0.0000;0.0000;0.0000
9;-0.5050;0.0073;0.0000;-0.5123;0.0000
10;0.0000;0.0000;0.0000;0.0000;0.0000
11;-1.0401;0.0000;0.0000;-1.0401;0.0000
12;2.3896;19.9752;-16.0806;9.8642;-11.3692
13;-0.0153;0.0000;0.0000;-0.0153;0.0000
14;-14.2943;7.3316;-19.9289;8.6668;-10.3638
15;0.9669;0.0000;0.0000;0.9669;0.0000
16;0.1667;0.6291;0.0000;-0.4624;0.0000
17;0.0000;0.0000;0.0000;0.0000;0.0000
18;0.0000;0.0000;0.0000;0.0000;0.0000
19;-0.5729;0.0000;0.0000;-0.5729;0.0000
20;-0.0304;0.0000;0.0000;-0.0304;0.0000
21;-12.5033;8.6602;-19.9978;11.0243;-12.1899
22;0.0000;0.0000;0.0000;0.0000;0.0000

> <BIOSOLVEIT.HYDE_ESTIMATED_AFFINITY_LOWER_BOUNDARY [nM]>
943.960131

> <BIOSOLVEIT.HYDE_ESTIMATED_AFFINITY_UPPER_BOUNDARY [nM]>
93788.020113

> <BIOSOLVEIT.HYDE_LIGAND_EFFICIENCY>
0.319865

> <BIOSOLVEIT.HYDE_LIGAND_LIPOPHILIC_EFFICIENCY>
4.552049

> <BIOSOLVEIT.INTER_CLASH range: 0=green, 1=yellow, 2=red>
0

> <BIOSOLVEIT.INTRA_CLASH range: 0=green, 1=yellow, 2=red>
0

> <BIOSOLVEIT.LOGP>
0.4744

> <BIOSOLVEIT.MOLECULAR_WEIGHT>
322.261

> <BIOSOLVEIT.MOLECULE_CHECKSUM>
LTI4LjY5MTswLjMxOTg2NQ==

> <BIOSOLVEIT.TORSION_QUALITY range: 0=green/not rotatable, 1=yellow, 2=red>
1

> <BIOSOLVEIT.TPSA>
101.13

> <cleaned_smiles (canonical SMILES)>
NC1CC(F)(CNC(=O)C(O)c2c[n]c([n]c2)C(F)(F)F)C1

> <BIOSOLVEIT.OPTIBRIUM.2C9 pKi>
4.25252

> <BIOSOLVEIT.OPTIBRIUM.2D6 affinity category>
low

> <BIOSOLVEIT.OPTIBRIUM.BBB category>
-

> <BIOSOLVEIT.OPTIBRIUM.BBB log([brain]:[blood])>
-0.553232

> <BIOSOLVEIT.OPTIBRIUM.hERG pIC50>
3.83117

> <BIOSOLVEIT.OPTIBRIUM.HIA category>
+

> <BIOSOLVEIT.OPTIBRIUM.logD>
-0.318172

> <BIOSOLVEIT.OPTIBRIUM.logP>
0.641421

> <BIOSOLVEIT.OPTIBRIUM.logS @ pH7.4>
3.22066

> <BIOSOLVEIT.OPTIBRIUM.logS>
3.19364

> <BIOSOLVEIT.OPTIBRIUM.P-gp category>
no

> <BIOSOLVEIT.OPTIBRIUM.PPB90 category>
low

$$$$
no name_1_008
phSeeSAR  05142510573D 1   1.00000     0.00000     0
SeeSAR 14.1.2 pham.congdat
 48 49  0  0  0  0            999 V2000
   -7.9267   -1.2264   18.9632 O   0  0  0  0  0  0  0  0  0  0  0  0
   -8.4469   -2.3136   19.2320 C   0  0  0  0  0  0  0  0  0  0  0  0
   -8.1922   -3.3725   18.4808 N   0  0  0  0  0  0  0  0  0  0  0  0
   -7.2899   -3.2548   17.3262 C   0  0  0  0  0  0  0  0  0  0  0  0
   -6.5693   -4.5777   17.1084 C   0  0  1  0  0  0  0  0  0  0  0  0
   -5.5214   -4.4296   16.0272 C   0  0  0  0  0  0  0  0  0  0  0  0
   -5.7290   -4.4608   14.8077 O   0  0  0  0  0  0  0  0  0  0  0  0
   -4.3229   -4.2508   16.6354 N   0  0  0  0  0  0  0  0  0  0  0  0
   -4.3793   -4.3522   17.9851 C   0  0  0  0  0  0  0  0  0  0  0  0
   -3.5094   -4.0361   18.8119 O   0  0  0  0  0  0  0  0  0  0  0  0
   -5.7274   -4.9418   18.3060 C   0  0  0  0  0  0  0  0  0  0  0  0
   -3.1201   -3.9621   15.8416 C   0  0  0  0  0  0  0  0  0  0  0  0
   -9.2898   -2.4235   20.3102 C   0  0  0  0  0  0  0  0  0  0  0  0
   -9.0191   -3.2038   21.2285 O   0  0  0  0  0  0  0  0  0  0  0  0
  -10.3919   -1.6938   20.3655 N   0  0  0  0  0  0  0  0  0  0  0  0
  -11.2943   -1.8115   21.5199 C   0  0  0  0  0  0  0  0  0  0  0  0
  -10.8170   -0.8917   22.6320 C   0  0  0  0  0  0  0  0  0  0  0  0
  -11.4344   -1.3281   23.9506 C   0  0  0  0  0  0  0  0  0  0  0  0
  -11.1374   -2.7999   24.1866 C   0  0  0  0  0  0  0  0  0  0  0  0
   -9.6604   -2.9746   24.5007 C   0  0  0  0  0  0  0  0  0  0  0  0
   -9.3359   -4.4597   24.6068 C   0  0  0  0  0  0  0  0  0  0  0  0
   -7.9669   -4.8859   25.0492 C   0  0  0  0  0  0  0  0  0  0  0  0
   -9.1368   -5.0459   25.9752 C   0  0  0  0  0  0  0  0  0  0  0  0
   -8.6135   -4.2530   18.6983 H   0  0  0  0  0  0  0  0  0  0  0  0
   -6.5717   -2.4838   17.5120 H   0  0  0  0  0  0  0  0  0  0  0  0
   -7.8580   -3.0101   16.4531 H   0  0  0  0  0  0  0  0  0  0  0  0
   -7.2607   -5.3591   16.8710 H   0  0  0  0  0  0  0  0  0  0  0  0
   -5.6627   -6.0038   18.4185 H   0  0  0  0  0  0  0  0  0  0  0  0
   -6.1290   -4.5121   19.1999 H   0  0  0  0  0  0  0  0  0  0  0  0
   -2.2803   -3.8483   16.4950 H   0  0  0  0  0  0  0  0  0  0  0  0
   -2.9377   -4.7698   15.1639 H   0  0  0  0  0  0  0  0  0  0  0  0
   -3.2664   -3.0582   15.2881 H   0  0  0  0  0  0  0  0  0  0  0  0
  -10.6111   -1.0621   19.6219 H   0  0  0  0  0  0  0  0  0  0  0  0
  -11.2961   -2.8227   21.8696 H   0  0  0  0  0  0  0  0  0  0  0  0
  -12.2853   -1.5333   21.2278 H   0  0  0  0  0  0  0  0  0  0  0  0
  -11.1127    0.1134   22.4151 H   0  0  0  0  0  0  0  0  0  0  0  0
   -9.7505   -0.9422   22.7035 H   0  0  0  0  0  0  0  0  0  0  0  0
  -12.4935   -1.1792   23.9151 H   0  0  0  0  0  0  0  0  0  0  0  0
  -11.0192   -0.7481   24.7481 H   0  0  0  0  0  0  0  0  0  0  0  0
  -11.3837   -3.3587   23.3081 H   0  0  0  0  0  0  0  0  0  0  0  0
  -11.7216   -3.1541   25.0101 H   0  0  0  0  0  0  0  0  0  0  0  0
   -9.4337   -2.4929   25.4288 H   0  0  0  0  0  0  0  0  0  0  0  0
   -9.0753   -2.5366   23.7193 H   0  0  0  0  0  0  0  0  0  0  0  0
   -9.8148   -5.0950   23.8913 H   0  0  0  0  0  0  0  0  0  0  0  0
   -7.2182   -4.1498   25.2556 H   0  0  0  0  0  0  0  0  0  0  0  0
   -7.5082   -5.7486   24.6129 H   0  0  0  0  0  0  0  0  0  0  0  0
   -9.5125   -6.0225   26.1988 H   0  0  0  0  0  0  0  0  0  0  0  0
   -9.2225   -4.4238   26.8414 H   0  0  0  0  0  0  0  0  0  0  0  0
  1  2  2  0  0  0  0
  2  3  1  0  0  0  0
  2 13  1  0  0  0  0
  3  4  1  0  0  0  0
  4  5  1  0  0  0  0
  5  6  1  0  0  0  0
  5 11  1  0  0  0  0
  6  7  2  0  0  0  0
  6  8  1  0  0  0  0
  8  9  1  0  0  0  0
  8 12  1  0  0  0  0
  9 10  2  0  0  0  0
  9 11  1  0  0  0  0
 13 14  2  0  0  0  0
 13 15  1  0  0  0  0
 15 16  1  0  0  0  0
 16 17  1  0  0  0  0
 17 18  1  0  0  0  0
 18 19  1  0  0  0  0
 19 20  1  0  0  0  0
 20 21  1  0  0  0  0
 21 22  1  0  0  0  0
 21 23  1  0  0  0  0
 22 23  1  0  0  0  0
  3 24  1  0  0  0  0
  4 25  1  0  0  0  0
  4 26  1  0  0  0  0
  5 27  1  0  0  0  0
 11 28  1  0  0  0  0
 11 29  1  0  0  0  0
 12 30  1  0  0  0  0
 12 31  1  0  0  0  0
 12 32  1  0  0  0  0
 15 33  1  0  0  0  0
 16 34  1  0  0  0  0
 16 35  1  0  0  0  0
 17 36  1  0  0  0  0
 17 37  1  0  0  0  0
 18 38  1  0  0  0  0
 18 39  1  0  0  0  0
 19 40  1  0  0  0  0
 19 41  1  0  0  0  0
 20 42  1  0  0  0  0
 20 43  1  0  0  0  0
 21 44  1  0  0  0  0
 22 45  1  0  0  0  0
 22 46  1  0  0  0  0
 23 47  1  0  0  0  0
 23 48  1  0  0  0  0
M  END
> <BIOSOLVEIT.HYDE_ATOM_SCORES [kJ/mol]>
# Atom-ID; Total; Rec-Desolv; Rec-IA; Lig-Desolv; Lig-IA
1;-0.0416;0.0000;0.0000;-0.0416;0.0000
2;-0.8097;-0.4244;0.0000;-0.3853;0.0000
3;-3.2152;8.7129;-10.4001;6.9007;-8.4287
4;-0.7617;0.4243;0.0000;-1.1860;0.0000
5;-0.5916;-0.2123;0.0000;-0.3792;0.0000
6;-1.4764;-1.0690;0.0000;-0.4074;0.0000
7;-4.0270;6.0078;-8.4286;8.7938;-10.4000
8;-0.7091;-0.6790;0.0000;-0.0301;0.0000
9;-0.7954;-0.4847;0.0000;-0.3107;0.0000
10;-0.0070;0.0000;0.0000;-0.0070;0.0000
11;-2.7283;-1.6879;0.0000;-1.0404;0.0000
12;-0.6949;0.0000;0.0000;-0.6949;0.0000
13;-0.3861;0.0000;0.0000;-0.3861;0.0000
14;-1.7719;1.8220;-1.9244;8.7307;-10.4001
15;1.1264;-0.1076;0.0000;1.2340;0.0000
16;-0.7621;0.0000;0.0000;-0.7621;0.0000
17;0.0000;0.0000;0.0000;0.0000;0.0000
18;0.0000;0.0000;0.0000;0.0000;0.0000
19;-3.6586;-2.8631;0.0000;-0.7955;0.0000
20;0.0000;0.0000;0.0000;0.0000;0.0000
21;-0.9016;-0.0126;0.0000;-0.8890;0.0000
22;-2.1980;-1.4501;0.0000;-0.7479;0.0000
23;-1.4045;-0.5480;0.0000;-0.8565;0.0000

> <BIOSOLVEIT.HYDE_ESTIMATED_AFFINITY_LOWER_BOUNDARY [nM]>
3012.634697

> <BIOSOLVEIT.HYDE_ESTIMATED_AFFINITY_UPPER_BOUNDARY [nM]>
299323.069293

> <BIOSOLVEIT.HYDE_LIGAND_EFFICIENCY>
0.275280

> <BIOSOLVEIT.HYDE_LIGAND_LIPOPHILIC_EFFICIENCY>
4.328357

> <BIOSOLVEIT.INTER_CLASH range: 0=green, 1=yellow, 2=red>
0

> <BIOSOLVEIT.INTRA_CLASH range: 0=green, 1=yellow, 2=red>
0

> <BIOSOLVEIT.LOGP>
0.1941

> <BIOSOLVEIT.MOLECULAR_WEIGHT>
323.391

> <BIOSOLVEIT.MOLECULE_CHECKSUM>
LTI1LjgxNDI7MC4yNzUyOA==

> <BIOSOLVEIT.TORSION_QUALITY range: 0=green/not rotatable, 1=yellow, 2=red>
0

> <BIOSOLVEIT.TPSA>
95.58

> <cleaned_smiles (canonical SMILES)>
CN1C(=O)C(CC1=O)CNC(=O)C(=O)NCCCCCC1CC1

> <BIOSOLVEIT.OPTIBRIUM.2C9 pKi>
3.99331

> <BIOSOLVEIT.OPTIBRIUM.2D6 affinity category>
low

> <BIOSOLVEIT.OPTIBRIUM.BBB category>
-

> <BIOSOLVEIT.OPTIBRIUM.BBB log([brain]:[blood])>
-0.848607

> <BIOSOLVEIT.OPTIBRIUM.hERG pIC50>
2.87477

> <BIOSOLVEIT.OPTIBRIUM.HIA category>
+

> <BIOSOLVEIT.OPTIBRIUM.logD>
0.949131

> <BIOSOLVEIT.OPTIBRIUM.logP>
0.949131

> <BIOSOLVEIT.OPTIBRIUM.logS @ pH7.4>
3.19031

> <BIOSOLVEIT.OPTIBRIUM.logS>
3.19031

> <BIOSOLVEIT.OPTIBRIUM.P-gp category>
no

> <BIOSOLVEIT.OPTIBRIUM.PPB90 category>
low

$$$$
no name_1_002
phSeeSAR  05142510573D 1   1.00000     0.00000     0
SeeSAR 14.1.2 pham.congdat
 44 46  0  0  0  0            999 V2000
    0.0026    0.4146    7.7761 S   0  0  0  0  0  0  0  0  0  0  0  0
    1.2508   -0.4873    8.7274 C   0  0  0  0  0  0  0  0  0  0  0  0
    0.7814   -0.6368   10.1654 C   0  0  0  0  0  0  0  0  0  0  0  0
    0.5102    0.3656   10.8339 O   0  0  0  0  0  0  0  0  0  0  0  0
    0.6635   -1.8405   10.7006 N   0  0  0  0  0  0  0  0  0  0  0  0
   -0.2914   -2.2314   11.7478 C   0  0  0  0  0  0  0  0  0  0  0  0
   -0.3943   -3.7272   11.5251 C   0  0  2  0  0  0  0  0  0  0  0  0
   -0.8594   -4.5050   12.6238 O   0  0  0  0  0  0  0  0  0  0  0  0
    1.0450   -4.1045   11.2445 C   0  0  0  0  0  0  0  0  0  0  0  0
    1.4709   -2.9955   10.3015 C   0  0  0  0  0  0  0  0  0  0  0  0
    0.1841   -1.8357   13.1388 C   0  0  0  0  0  0  0  0  0  0  0  0
   -0.7914   -2.1883   14.2551 C   0  0  0  0  0  0  0  0  0  0  0  0
   -2.2141   -1.7136   13.9852 C   0  0  0  0  0  0  0  0  0  0  0  0
   -2.6926   -1.9671   12.5618 C   0  0  0  0  0  0  0  0  0  0  0  0
   -1.6387   -1.5455   11.5501 C   0  0  0  0  0  0  0  0  0  0  0  0
    0.0572    2.0535    8.5421 C   0  0  0  0  0  0  0  0  0  0  0  0
   -1.3211    2.6909    8.4737 C   0  0  0  0  0  0  0  0  0  0  0  0
   -2.3371    1.7727    9.1325 C   0  0  0  0  0  0  0  0  0  0  0  0
   -2.5186    1.6212   10.4209 N   0  0  0  0  0  0  0  0  0  0  0  0
   -3.5214    0.7083   10.5505 N   0  0  0  0  0  0  0  0  0  0  0  0
   -3.9011    0.3413    9.3675 N   0  0  0  0  0  0  0  0  0  0  0  0
   -3.2326    0.9421    8.4823 N   0  5  0  0  0  0  0  0  0  0  0  0
    2.1738    0.0536    8.7080 H   0  0  0  0  0  0  0  0  0  0  0  0
    1.3960   -1.4562    8.2971 H   0  0  0  0  0  0  0  0  0  0  0  0
   -0.9952   -3.9243   10.6619 H   0  0  0  0  0  0  0  0  0  0  0  0
   -0.8996   -5.4679   12.3573 H   0  0  0  0  0  0  0  0  0  0  0  0
    1.1132   -5.0639   10.7754 H   0  0  0  0  0  0  0  0  0  0  0  0
    1.6310   -4.1028   12.1397 H   0  0  0  0  0  0  0  0  0  0  0  0
    2.5138   -2.7841   10.4136 H   0  0  0  0  0  0  0  0  0  0  0  0
    1.2688   -3.2648    9.2859 H   0  0  0  0  0  0  0  0  0  0  0  0
    0.3406   -0.7773   13.1515 H   0  0  0  0  0  0  0  0  0  0  0  0
    1.1102   -2.3356   13.3318 H   0  0  0  0  0  0  0  0  0  0  0  0
   -0.4483   -1.7348   15.1615 H   0  0  0  0  0  0  0  0  0  0  0  0
   -0.8046   -3.2519   14.3711 H   0  0  0  0  0  0  0  0  0  0  0  0
   -2.2589   -0.6611   14.1727 H   0  0  0  0  0  0  0  0  0  0  0  0
   -2.8721   -2.2239   14.6572 H   0  0  0  0  0  0  0  0  0  0  0  0
   -3.5879   -1.4073   12.3885 H   0  0  0  0  0  0  0  0  0  0  0  0
   -2.8956   -3.0108   12.4414 H   0  0  0  0  0  0  0  0  0  0  0  0
   -1.9975   -1.7815   10.5701 H   0  0  0  0  0  0  0  0  0  0  0  0
   -1.4950   -0.4884   11.6324 H   0  0  0  0  0  0  0  0  0  0  0  0
    0.7607    2.6680    8.0201 H   0  0  0  0  0  0  0  0  0  0  0  0
    0.3562    1.9592    9.5652 H   0  0  0  0  0  0  0  0  0  0  0  0
   -1.5917    2.8464    7.4502 H   0  0  0  0  0  0  0  0  0  0  0  0
   -1.3052    3.6306    8.9851 H   0  0  0  0  0  0  0  0  0  0  0  0
  1  2  1  0  0  0  0
  1 16  1  0  0  0  0
  2  3  1  0  0  0  0
  3  4  2  0  0  0  0
  3  5  1  0  0  0  0
  5  6  1  0  0  0  0
  5 10  1  0  0  0  0
  6  7  1  0  0  0  0
  6 11  1  0  0  0  0
  6 15  1  0  0  0  0
  7  8  1  0  0  0  0
  7  9  1  0  0  0  0
  9 10  1  0  0  0  0
 11 12  1  0  0  0  0
 12 13  1  0  0  0  0
 13 14  1  0  0  0  0
 14 15  1  0  0  0  0
 16 17  1  0  0  0  0
 17 18  1  0  0  0  0
 18 19  2  0  0  0  0
 18 22  1  0  0  0  0
 19 20  1  0  0  0  0
 20 21  2  0  0  0  0
 21 22  1  0  0  0  0
  2 23  1  0  0  0  0
  2 24  1  0  0  0  0
  7 25  1  0  0  0  0
  8 26  1  0  0  0  0
  9 27  1  0  0  0  0
  9 28  1  0  0  0  0
 10 29  1  0  0  0  0
 10 30  1  0  0  0  0
 11 31  1  0  0  0  0
 11 32  1  0  0  0  0
 12 33  1  0  0  0  0
 12 34  1  0  0  0  0
 13 35  1  0  0  0  0
 13 36  1  0  0  0  0
 14 37  1  0  0  0  0
 14 38  1  0  0  0  0
 15 39  1  0  0  0  0
 15 40  1  0  0  0  0
 16 41  1  0  0  0  0
 16 42  1  0  0  0  0
 17 43  1  0  0  0  0
 17 44  1  0  0  0  0
M  CHG  1  22  -1
M  END
> <BIOSOLVEIT.HYDE_ATOM_SCORES [kJ/mol]>
# Atom-ID; Total; Rec-Desolv; Rec-IA; Lig-Desolv; Lig-IA
1;-14.2121;6.9531;-19.8478;0.3729;-1.6903
2;-0.3026;0.0000;0.0000;-0.3026;0.0000
3;0.0000;0.0000;0.0000;0.0000;0.0000
4;1.0405;0.0000;0.0000;1.0405;0.0000
5;0.0000;0.0000;0.0000;0.0000;0.0000
6;0.0000;0.0000;0.0000;0.0000;0.0000
7;0.7968;1.4820;0.0000;-0.6852;0.0000
8;-1.5214;3.8100;-4.6866;8.1349;-8.7797
9;5.6293;6.4065;0.0000;-0.7772;0.0000
10;-0.5255;-0.0849;0.0000;-0.4407;0.0000
11;0.0000;0.0000;0.0000;0.0000;0.0000
12;0.0000;0.0000;0.0000;0.0000;0.0000
13;-0.7135;-0.0539;0.0000;-0.6597;0.0000
14;-0.7401;0.0510;0.0000;-0.7910;0.0000
15;-0.7388;0.0000;0.0000;-0.7388;0.0000
16;-0.1101;0.0000;0.0000;-0.1101;0.0000
17;-2.9859;-1.1320;0.0000;-1.8539;0.0000
18;-0.3083;0.0000;0.0000;-0.3083;0.0000
19;4.2358;6.0804;-4.3393;6.8340;-4.3393
20;-2.9440;7.0584;-8.4282;6.8541;-8.4282
21;-3.3163;6.5213;-8.2674;6.6971;-8.2674
22;-9.5326;11.6633;-19.6591;6.7488;-8.2856

> <BIOSOLVEIT.HYDE_ESTIMATED_AFFINITY_LOWER_BOUNDARY [nM]>
1893.689541

> <BIOSOLVEIT.HYDE_ESTIMATED_AFFINITY_UPPER_BOUNDARY [nM]>
188149.252315

> <BIOSOLVEIT.HYDE_LIGAND_EFFICIENCY>
0.300624

> <BIOSOLVEIT.HYDE_LIGAND_LIPOPHILIC_EFFICIENCY>
3.554194

> <BIOSOLVEIT.INTER_CLASH range: 0=green, 1=yellow, 2=red>
0

> <BIOSOLVEIT.INTRA_CLASH range: 0=green, 1=yellow, 2=red>
1

> <BIOSOLVEIT.LOGP>
1.1699

> <BIOSOLVEIT.MOLECULAR_WEIGHT>
324.426

> <BIOSOLVEIT.MOLECULE_CHECKSUM>
LTI2Ljk2NTI7MC4zMDA2MjQ=

> <BIOSOLVEIT.TORSION_QUALITY range: 0=green/not rotatable, 1=yellow, 2=red>
0

> <BIOSOLVEIT.TPSA>
93.31

> <cleaned_smiles (canonical SMILES)>
OC1CCN(C(=O)CSCCc2[nH][n][n][n]2)C21CCCCC2

> <BIOSOLVEIT.OPTIBRIUM.2C9 pKi>
4.22395

> <BIOSOLVEIT.OPTIBRIUM.2D6 affinity category>
medium

> <BIOSOLVEIT.OPTIBRIUM.BBB category>
-

> <BIOSOLVEIT.OPTIBRIUM.BBB log([brain]:[blood])>
-0.483376

> <BIOSOLVEIT.OPTIBRIUM.hERG pIC50>
5.17367

> <BIOSOLVEIT.OPTIBRIUM.HIA category>
+

> <BIOSOLVEIT.OPTIBRIUM.logD>
1.12174

> <BIOSOLVEIT.OPTIBRIUM.logP>
1.12174

> <BIOSOLVEIT.OPTIBRIUM.logS @ pH7.4>
4.15035

> <BIOSOLVEIT.OPTIBRIUM.logS>
4.15035

> <BIOSOLVEIT.OPTIBRIUM.P-gp category>
no

> <BIOSOLVEIT.OPTIBRIUM.PPB90 category>
low

$$$$
no name_1_005
phSeeSAR  05142510573D 1   1.00000     0.00000     0
SeeSAR 14.1.2 pham.congdat
 38 39  0  0  0  0            999 V2000
   -2.9627    1.1192    9.7010 S   0  0  0  0  0  0  0  0  0  0  0  0
   -4.2950    1.1739   10.2446 O   0  0  0  0  0  0  0  0  0  0  0  0
   -2.9814    0.3945    8.4568 O   0  0  0  0  0  0  0  0  0  0  0  0
   -2.4201    2.6338    9.4395 N   0  5  0  0  0  0  0  0  0  0  0  0
   -1.3677    2.8755    8.4419 C   0  0  0  0  0  0  0  0  0  0  0  0
   -0.0459    2.3304    8.9578 C   0  0  0  0  0  0  0  0  0  0  0  0
    0.8606    2.0034    7.7822 C   0  0  0  0  0  0  0  0  0  0  0  0
    0.2139    0.5580    6.9054 S   0  0  0  0  0  0  0  0  0  0  0  0
    0.7480   -0.8009    7.9751 C   0  0  0  0  0  0  0  0  0  0  0  0
    2.2555   -0.9664    7.8695 C   0  0  0  0  0  0  0  0  0  0  0  0
    3.0097   -0.4837    6.9145 N   0  0  0  0  0  0  0  0  0  0  0  0
    4.3042   -0.8401    7.1649 N   0  0  0  0  0  0  0  0  0  0  0  0
    4.3344   -1.5425    8.2766 C   0  0  0  0  0  0  0  0  0  0  0  0
    3.0487   -1.6491    8.7676 N   0  0  0  0  0  0  0  0  0  0  0  0
    2.6313   -2.3356    9.9586 C   0  0  0  0  0  0  0  0  0  0  0  0
    1.6697   -3.3364    9.8699 C   0  0  0  0  0  0  0  0  0  0  0  0
    1.2697   -3.9966   11.0268 C   0  0  0  0  0  0  0  0  0  0  0  0
    1.8241   -3.6609   12.2568 C   0  0  0  0  0  0  0  0  0  0  0  0
    2.7853   -2.6582   12.3361 C   0  0  0  0  0  0  0  0  0  0  0  0
    3.1919   -1.9921   11.1847 C   0  0  0  0  0  0  0  0  0  0  0  0
   -1.8673    0.2796   10.8719 C   0  0  0  0  0  0  0  0  0  0  0  0
   -1.2760    3.9273    8.2678 H   0  0  0  0  0  0  0  0  0  0  0  0
   -1.6237    2.3834    7.5269 H   0  0  0  0  0  0  0  0  0  0  0  0
   -0.2244    1.4429    9.5282 H   0  0  0  0  0  0  0  0  0  0  0  0
    0.4250    3.0643    9.5779 H   0  0  0  0  0  0  0  0  0  0  0  0
    1.8465    1.7919    8.1402 H   0  0  0  0  0  0  0  0  0  0  0  0
    0.8951    2.8393    7.1152 H   0  0  0  0  0  0  0  0  0  0  0  0
    0.2675   -1.7063    7.6682 H   0  0  0  0  0  0  0  0  0  0  0  0
    0.4832   -0.5824    8.9885 H   0  0  0  0  0  0  0  0  0  0  0  0
    5.2103   -1.9618    8.7258 H   0  0  0  0  0  0  0  0  0  0  0  0
    1.2429   -3.5952    8.9234 H   0  0  0  0  0  0  0  0  0  0  0  0
    0.5303   -4.7680   10.9699 H   0  0  0  0  0  0  0  0  0  0  0  0
    1.5116   -4.1738   13.1424 H   0  0  0  0  0  0  0  0  0  0  0  0
    3.2118   -2.3994   13.2828 H   0  0  0  0  0  0  0  0  0  0  0  0
    3.9311   -1.2206   11.2415 H   0  0  0  0  0  0  0  0  0  0  0  0
   -0.8773    0.2389   10.4679 H   0  0  0  0  0  0  0  0  0  0  0  0
   -1.8534    0.8181   11.7964 H   0  0  0  0  0  0  0  0  0  0  0  0
   -2.2235   -0.7147   11.0436 H   0  0  0  0  0  0  0  0  0  0  0  0
  1  2  2  0  0  0  0
  1  3  2  0  0  0  0
  1  4  1  0  0  0  0
  1 21  1  0  0  0  0
  4  5  1  0  0  0  0
  5  6  1  0  0  0  0
  6  7  1  0  0  0  0
  7  8  1  0  0  0  0
  8  9  1  0  0  0  0
  9 10  1  0  0  0  0
 10 11  2  0  0  0  0
 10 14  1  0  0  0  0
 11 12  1  0  0  0  0
 12 13  2  0  0  0  0
 13 14  1  0  0  0  0
 14 15  1  0  0  0  0
 15 16  2  0  0  0  0
 15 20  1  0  0  0  0
 16 17  1  0  0  0  0
 17 18  2  0  0  0  0
 18 19  1  0  0  0  0
 19 20  2  0  0  0  0
 21 38  1  0  0  0  0
  5 22  1  0  0  0  0
  5 23  1  0  0  0  0
  6 24  1  0  0  0  0
  6 25  1  0  0  0  0
  7 26  1  0  0  0  0
  7 27  1  0  0  0  0
  9 28  1  0  0  0  0
  9 29  1  0  0  0  0
 13 30  1  0  0  0  0
 16 31  1  0  0  0  0
 17 32  1  0  0  0  0
 18 33  1  0  0  0  0
 19 34  1  0  0  0  0
 20 35  1  0  0  0  0
 21 36  1  0  0  0  0
 21 37  1  0  0  0  0
M  CHG  1   4  -1
M  END
> <BIOSOLVEIT.HYDE_ATOM_SCORES [kJ/mol]>
# Atom-ID; Total; Rec-Desolv; Rec-IA; Lig-Desolv; Lig-IA
1;-0.1463;0.0000;0.0000;-0.1463;0.0000
2;-3.7051;14.9805;-16.8424;2.9226;-4.7658
3;-9.6265;8.8286;-18.0416;3.1677;-3.5811
4;-6.2973;16.5147;-20.6187;12.4351;-14.6284
5;-1.6645;-0.2737;0.0000;-1.3908;0.0000
6;-0.3220;0.0000;0.0000;-0.3220;0.0000
7;-0.2222;0.0000;0.0000;-0.2222;0.0000
8;-12.6165;8.7463;-19.9988;0.3392;-1.7032
9;-3.5742;-2.6032;0.0000;-0.9710;0.0000
10;0.0000;0.0000;0.0000;0.0000;0.0000
11;0.0000;0.0000;0.0000;0.0000;0.0000
12;0.0000;0.0000;0.0000;0.0000;0.0000
13;-2.1323;-1.3655;0.0000;-0.7668;0.0000
14;0.0000;0.0000;0.0000;0.0000;0.0000
15;-0.1897;0.0000;0.0000;-0.1897;0.0000
16;-0.8639;0.0000;0.0000;-0.8639;0.0000
17;-1.0481;-0.0399;0.0000;-1.0082;0.0000
18;6.6592;6.8430;0.0000;-0.1838;0.0000
19;-0.1280;0.0000;0.0000;-0.1280;0.0000
20;-0.2619;0.0000;0.0000;-0.2619;0.0000
21;-2.2813;-0.9301;0.0000;-1.3513;0.0000

> <BIOSOLVEIT.HYDE_ESTIMATED_AFFINITY_LOWER_BOUNDARY [nM]>
13.724223

> <BIOSOLVEIT.HYDE_ESTIMATED_AFFINITY_UPPER_BOUNDARY [nM]>
1363.582722

> <BIOSOLVEIT.HYDE_LIGAND_EFFICIENCY>
0.457594

> <BIOSOLVEIT.HYDE_LIGAND_LIPOPHILIC_EFFICIENCY>
3.989415

> <BIOSOLVEIT.INTER_CLASH range: 0=green, 1=yellow, 2=red>
0

> <BIOSOLVEIT.INTRA_CLASH range: 0=green, 1=yellow, 2=red>
0

> <BIOSOLVEIT.LOGP>
2.8745

> <BIOSOLVEIT.MOLECULAR_WEIGHT>
325.433

> <BIOSOLVEIT.MOLECULE_CHECKSUM>
LTM5LjE3OTM7MC40NTc1OTQ=

> <BIOSOLVEIT.TORSION_QUALITY range: 0=green/not rotatable, 1=yellow, 2=red>
1

> <BIOSOLVEIT.TPSA>
78.95

> <cleaned_smiles (canonical SMILES)>
CS(=O)(=O)NCCCSCc1[n][n]c[n]1-c1ccccc1

> <BIOSOLVEIT.OPTIBRIUM.2C9 pKi>
4.39453

> <BIOSOLVEIT.OPTIBRIUM.2D6 affinity category>
low

> <BIOSOLVEIT.OPTIBRIUM.BBB category>
-

> <BIOSOLVEIT.OPTIBRIUM.BBB log([brain]:[blood])>
-0.713867

> <BIOSOLVEIT.OPTIBRIUM.hERG pIC50>
5.40419

> <BIOSOLVEIT.OPTIBRIUM.HIA category>
+

> <BIOSOLVEIT.OPTIBRIUM.logD>
1.68609

> <BIOSOLVEIT.OPTIBRIUM.logP>
1.68609

> <BIOSOLVEIT.OPTIBRIUM.logS @ pH7.4>
3.56939

> <BIOSOLVEIT.OPTIBRIUM.logS>
3.56939

> <BIOSOLVEIT.OPTIBRIUM.P-gp category>
no

> <BIOSOLVEIT.OPTIBRIUM.PPB90 category>
low

$$$$
no name_1_002
phSeeSAR  05142510573D 1   1.00000     0.00000     0
SeeSAR 14.1.2 pham.congdat
 49 50  0  0  0  0            999 V2000
   -0.5863    2.4792   10.3461 O   0  0  0  0  0  0  0  0  0  0  0  0
   -1.0227    1.6464    9.5454 C   0  0  0  0  0  0  0  0  0  0  0  0
   -1.3820    2.0201    8.3423 O   0  0  0  0  0  0  0  0  0  0  0  0
   -1.2172    3.3719    7.9400 C   0  0  0  0  0  0  0  0  0  0  0  0
   -1.1431    0.1876    9.9557 C   0  0  2  0  0  0  0  0  0  0  0  0
   -0.3229   -0.7074    9.0424 C   0  0  0  0  0  0  0  0  0  0  0  0
   -0.2820   -0.4800    7.8293 O   0  0  0  0  0  0  0  0  0  0  0  0
    0.3476   -1.7304    9.5467 N   0  0  0  0  0  0  0  0  0  0  0  0
    1.1412   -2.5964    8.6630 C   0  0  0  0  0  0  0  0  0  0  0  0
    2.5243   -1.9951    8.4730 C   0  0  0  0  0  0  0  0  0  0  0  0
    3.3391   -2.1876    9.7417 C   0  0  0  0  0  0  0  0  0  0  0  0
    3.3951   -3.2992   10.2768 O   0  0  0  0  0  0  0  0  0  0  0  0
    3.9884   -1.1640   10.2728 N   0  0  0  0  0  0  0  0  0  0  0  0
    5.2276   -1.4464   11.0158 C   0  0  2  0  0  0  0  0  0  0  0  0
    5.3926   -0.5417   12.2296 C   0  0  0  0  0  0  0  0  0  0  0  0
    5.1208    0.9150   11.8774 C   0  0  0  0  0  0  0  0  0  0  0  0
    3.7374    1.1163   11.2754 C   0  0  0  0  0  0  0  0  0  0  0  0
    3.4418    0.1945   10.0984 C   0  0  0  0  0  0  0  0  0  0  0  0
    6.3812   -1.2680   10.0399 C   0  0  0  0  0  0  0  0  0  0  0  0
   -2.5874   -0.2842   10.0307 C   0  0  0  0  0  0  0  0  0  0  0  0
   -3.0103    0.0703   11.3315 O   0  0  0  0  0  0  0  0  0  0  0  0
   -1.9591   -0.4034   12.1443 C   0  0  0  0  0  0  0  0  0  0  0  0
   -0.7173    0.0478   11.4026 C   0  0  0  0  0  0  0  0  0  0  0  0
   -1.5629    3.4894    6.9342 H   0  0  0  0  0  0  0  0  0  0  0  0
   -1.7827    4.0084    8.5881 H   0  0  0  0  0  0  0  0  0  0  0  0
   -0.1819    3.6366    7.9945 H   0  0  0  0  0  0  0  0  0  0  0  0
    0.3144   -1.9146   10.5290 H   0  0  0  0  0  0  0  0  0  0  0  0
    0.6547   -2.6788    7.7135 H   0  0  0  0  0  0  0  0  0  0  0  0
    1.2319   -3.5675    9.1028 H   0  0  0  0  0  0  0  0  0  0  0  0
    2.4330   -0.9499    8.2627 H   0  0  0  0  0  0  0  0  0  0  0  0
    3.0156   -2.4816    7.6564 H   0  0  0  0  0  0  0  0  0  0  0  0
    5.2082   -2.4645   11.3446 H   0  0  0  0  0  0  0  0  0  0  0  0
    6.3939   -0.6303   12.5963 H   0  0  0  0  0  0  0  0  0  0  0  0
    4.7057   -0.8502   12.9898 H   0  0  0  0  0  0  0  0  0  0  0  0
    5.8545    1.2404   11.1698 H   0  0  0  0  0  0  0  0  0  0  0  0
    5.1977    1.5040   12.7674 H   0  0  0  0  0  0  0  0  0  0  0  0
    3.6593    2.1291   10.9392 H   0  0  0  0  0  0  0  0  0  0  0  0
    3.0079    0.9362   12.0371 H   0  0  0  0  0  0  0  0  0  0  0  0
    2.3808    0.1217    9.9816 H   0  0  0  0  0  0  0  0  0  0  0  0
    3.8693    0.6223    9.2157 H   0  0  0  0  0  0  0  0  0  0  0  0
    7.3059   -1.4646   10.5409 H   0  0  0  0  0  0  0  0  0  0  0  0
    6.2661   -1.9498    9.2232 H   0  0  0  0  0  0  0  0  0  0  0  0
    6.3828   -0.2643    9.6691 H   0  0  0  0  0  0  0  0  0  0  0  0
   -2.6467   -1.3432    9.8896 H   0  0  0  0  0  0  0  0  0  0  0  0
   -3.1845    0.2081    9.2919 H   0  0  0  0  0  0  0  0  0  0  0  0
   -1.9896   -1.4696   12.2282 H   0  0  0  0  0  0  0  0  0  0  0  0
   -2.0025    0.0326   13.1205 H   0  0  0  0  0  0  0  0  0  0  0  0
   -0.3735    0.9865   11.7841 H   0  0  0  0  0  0  0  0  0  0  0  0
    0.0602   -0.6814   11.4954 H   0  0  0  0  0  0  0  0  0  0  0  0
  1  2  2  0  0  0  0
  2  3  1  0  0  0  0
  2  5  1  0  0  0  0
  3  4  1  0  0  0  0
  5  6  1  0  0  0  0
  5 20  1  0  0  0  0
  5 23  1  0  0  0  0
  6  7  2  0  0  0  0
  6  8  1  0  0  0  0
  8  9  1  0  0  0  0
  9 10  1  0  0  0  0
 10 11  1  0  0  0  0
 11 12  2  0  0  0  0
 11 13  1  0  0  0  0
 13 14  1  0  0  0  0
 13 18  1  0  0  0  0
 14 15  1  0  0  0  0
 14 19  1  0  0  0  0
 15 16  1  0  0  0  0
 16 17  1  0  0  0  0
 17 18  1  0  0  0  0
 20 21  1  0  0  0  0
 21 22  1  0  0  0  0
 22 23  1  0  0  0  0
  4 24  1  0  0  0  0
  4 25  1  0  0  0  0
  4 26  1  0  0  0  0
  8 27  1  0  0  0  0
  9 28  1  0  0  0  0
  9 29  1  0  0  0  0
 10 30  1  0  0  0  0
 10 31  1  0  0  0  0
 14 32  1  0  0  0  0
 15 33  1  0  0  0  0
 15 34  1  0  0  0  0
 16 35  1  0  0  0  0
 16 36  1  0  0  0  0
 17 37  1  0  0  0  0
 17 38  1  0  0  0  0
 18 39  1  0  0  0  0
 18 40  1  0  0  0  0
 19 41  1  0  0  0  0
 19 42  1  0  0  0  0
 19 43  1  0  0  0  0
 20 44  1  0  0  0  0
 20 45  1  0  0  0  0
 22 46  1  0  0  0  0
 22 47  1  0  0  0  0
 23 48  1  0  0  0  0
 23 49  1  0  0  0  0
M  END
> <BIOSOLVEIT.HYDE_ATOM_SCORES [kJ/mol]>
# Atom-ID; Total; Rec-Desolv; Rec-IA; Lig-Desolv; Lig-IA
1;2.5275;13.7876;-9.6221;8.7620;-10.3999
2;-0.0222;0.0000;0.0000;-0.0222;0.0000
3;-10.8591;9.6994;-19.5996;4.0750;-5.0339
4;-3.2919;-0.8984;0.0000;-2.3935;0.0000
5;0.0000;0.0000;0.0000;0.0000;0.0000
6;-0.1574;0.0000;0.0000;-0.1574;0.0000
7;-12.5749;6.6681;-18.4473;8.7976;-9.5933
8;0.2576;0.2797;0.0000;-0.0221;0.0000
9;-0.9994;-0.3402;0.0000;-0.6593;0.0000
10;-0.3235;0.0000;0.0000;-0.3235;0.0000
11;-0.0516;0.0000;0.0000;-0.0516;0.0000
12;-3.9160;5.3476;-8.2182;9.0949;-10.1404
13;0.0000;0.0000;0.0000;0.0000;0.0000
14;-0.0804;0.0000;0.0000;-0.0804;0.0000
15;0.0000;0.0000;0.0000;0.0000;0.0000
16;0.0000;0.0000;0.0000;0.0000;0.0000
17;0.0000;0.0000;0.0000;0.0000;0.0000
18;0.0000;0.0000;0.0000;0.0000;0.0000
19;-0.7161;0.0000;0.0000;-0.7161;0.0000
20;-2.1167;-0.4749;0.0000;-1.6418;0.0000
21;6.7430;12.0604;-6.9653;9.5995;-7.9516
22;-0.8422;0.0000;0.0000;-0.8422;0.0000
23;-0.0740;0.0000;0.0000;-0.0740;0.0000

> <BIOSOLVEIT.HYDE_ESTIMATED_AFFINITY_LOWER_BOUNDARY [nM]>
2184.050932

> <BIOSOLVEIT.HYDE_ESTIMATED_AFFINITY_UPPER_BOUNDARY [nM]>
216998.373271

> <BIOSOLVEIT.HYDE_LIGAND_EFFICIENCY>
0.283782

> <BIOSOLVEIT.HYDE_LIGAND_LIPOPHILIC_EFFICIENCY>
4.188740

> <BIOSOLVEIT.INTER_CLASH range: 0=green, 1=yellow, 2=red>
1

> <BIOSOLVEIT.INTRA_CLASH range: 0=green, 1=yellow, 2=red>
0

> <BIOSOLVEIT.LOGP>
0.4734

> <BIOSOLVEIT.MOLECULAR_WEIGHT>
326.39

> <BIOSOLVEIT.MOLECULE_CHECKSUM>
LTI2LjYxMTU7MC4yODM3ODI=

> <BIOSOLVEIT.TORSION_QUALITY range: 0=green/not rotatable, 1=yellow, 2=red>
0

> <BIOSOLVEIT.TPSA>
84.94

> <cleaned_smiles (canonical SMILES)>
COC(=O)C1(COCC1)C(=O)NCCC(=O)N1CCCCC1C

> <BIOSOLVEIT.OPTIBRIUM.2C9 pKi>
4.29592

> <BIOSOLVEIT.OPTIBRIUM.2D6 affinity category>
medium

> <BIOSOLVEIT.OPTIBRIUM.BBB category>
-

> <BIOSOLVEIT.OPTIBRIUM.BBB log([brain]:[blood])>
-0.723815

> <BIOSOLVEIT.OPTIBRIUM.hERG pIC50>
3.7758

> <BIOSOLVEIT.OPTIBRIUM.HIA category>
+

> <BIOSOLVEIT.OPTIBRIUM.logD>
0.528856

> <BIOSOLVEIT.OPTIBRIUM.logP>
0.528856

> <BIOSOLVEIT.OPTIBRIUM.logS @ pH7.4>
4.35951

> <BIOSOLVEIT.OPTIBRIUM.logS>
4.35951

> <BIOSOLVEIT.OPTIBRIUM.P-gp category>
no

> <BIOSOLVEIT.OPTIBRIUM.PPB90 category>
low

$$$$
no name_1_008
phSeeSAR  05142510573D 1   1.00000     0.00000     0
SeeSAR 14.1.2 pham.congdat
 42 44  0  0  0  0            999 V2000
   -2.8196    0.8510    9.7417 S   0  0  0  0  0  0  0  0  0  0  0  0
   -4.0929    1.2688   10.2687 O   0  0  0  0  0  0  0  0  0  0  0  0
   -2.9932    0.3622    8.3984 O   0  0  0  0  0  0  0  0  0  0  0  0
   -2.2076   -0.3353   10.6766 N   0  0  0  0  0  0  0  0  0  0  0  0
   -0.9927   -0.9082   10.0978 C   0  0  0  0  0  0  0  0  0  0  0  0
   -0.2983   -1.5252   11.2951 C   0  0  0  0  0  0  0  0  0  0  0  0
   -0.7158   -0.8769   12.3764 C   0  0  0  0  0  0  0  0  0  0  0  0
   -1.6994    0.1884   11.9444 C   0  0  0  0  0  0  0  0  0  0  0  0
   -1.7940    2.1179    9.7307 N   0  0  0  0  0  0  0  0  0  0  0  0
   -0.3680    1.8952    9.5881 N   0  0  0  0  0  0  0  0  0  0  0  0
    0.2260    1.3361    8.4932 C   0  0  0  0  0  0  0  0  0  0  0  0
   -0.3790    0.9479    7.4890 O   0  0  0  0  0  0  0  0  0  0  0  0
    1.5798    1.2641    8.6508 N   0  0  0  0  0  0  0  0  0  0  0  0
    1.9078    1.8255    9.9648 C   0  0  1  0  0  0  0  0  0  0  0  0
    0.5638    2.2192   10.5298 C   0  0  0  0  0  0  0  0  0  0  0  0
    0.3433    2.7393   11.6334 O   0  0  0  0  0  0  0  0  0  0  0  0
    2.5628    0.7964   10.8744 C   0  0  0  0  0  0  0  0  0  0  0  0
    3.9062    0.3515   10.3192 C   0  0  0  0  0  0  0  0  0  0  0  0
    4.8073    1.5641   10.1476 C   0  0  2  0  0  0  0  0  0  0  0  0
    4.1750    2.6223    9.2579 C   0  0  0  0  0  0  0  0  0  0  0  0
    2.8314    3.0279    9.8421 C   0  0  0  0  0  0  0  0  0  0  0  0
    6.1160    1.1225    9.5166 C   0  0  0  0  0  0  0  0  0  0  0  0
   -0.3854   -0.1491    9.6508 H   0  0  0  0  0  0  0  0  0  0  0  0
   -1.2299   -1.6521    9.3661 H   0  0  0  0  0  0  0  0  0  0  0  0
    0.4006   -2.3352   11.2734 H   0  0  0  0  0  0  0  0  0  0  0  0
   -0.4087   -1.0743   13.3822 H   0  0  0  0  0  0  0  0  0  0  0  0
   -2.4875    0.2983   12.6597 H   0  0  0  0  0  0  0  0  0  0  0  0
   -1.2109    1.1300   11.8044 H   0  0  0  0  0  0  0  0  0  0  0  0
   -2.0714    2.7073    8.9721 H   0  0  0  0  0  0  0  0  0  0  0  0
    2.2315    0.8946    7.9884 H   0  0  0  0  0  0  0  0  0  0  0  0
    1.9202   -0.0550   10.9586 H   0  0  0  0  0  0  0  0  0  0  0  0
    2.7104    1.2289   11.8419 H   0  0  0  0  0  0  0  0  0  0  0  0
    3.7614   -0.1229    9.3711 H   0  0  0  0  0  0  0  0  0  0  0  0
    4.3619   -0.3391   10.9976 H   0  0  0  0  0  0  0  0  0  0  0  0
    5.0083    1.9894   11.1086 H   0  0  0  0  0  0  0  0  0  0  0  0
    4.0326    2.2248    8.2747 H   0  0  0  0  0  0  0  0  0  0  0  0
    4.8163    3.4774    9.2075 H   0  0  0  0  0  0  0  0  0  0  0  0
    2.9849    3.4523   10.8122 H   0  0  0  0  0  0  0  0  0  0  0  0
    2.3765    3.7553    9.2025 H   0  0  0  0  0  0  0  0  0  0  0  0
    6.7562    1.9708    9.3924 H   0  0  0  0  0  0  0  0  0  0  0  0
    6.5936    0.4050   10.1506 H   0  0  0  0  0  0  0  0  0  0  0  0
    5.9204    0.6805    8.5620 H   0  0  0  0  0  0  0  0  0  0  0  0
  1  2  2  0  0  0  0
  1  3  2  0  0  0  0
  1  4  1  0  0  0  0
  1  9  1  0  0  0  0
  4  5  1  0  0  0  0
  4  8  1  0  0  0  0
  5  6  1  0  0  0  0
  6  7  2  0  0  0  0
  7  8  1  0  0  0  0
  9 10  1  0  0  0  0
 10 11  1  0  0  0  0
 10 15  1  0  0  0  0
 11 12  2  0  0  0  0
 11 13  1  0  0  0  0
 13 14  1  0  0  0  0
 14 15  1  0  0  0  0
 14 17  1  0  0  0  0
 14 21  1  0  0  0  0
 15 16  2  0  0  0  0
 17 18  1  0  0  0  0
 18 19  1  0  0  0  0
 19 20  1  0  0  0  0
 19 22  1  0  0  0  0
 20 21  1  0  0  0  0
  5 23  1  0  0  0  0
  5 24  1  0  0  0  0
  6 25  1  0  0  0  0
  7 26  1  0  0  0  0
  8 27  1  0  0  0  0
  8 28  1  0  0  0  0
  9 29  1  0  0  0  0
 13 30  1  0  0  0  0
 17 31  1  0  0  0  0
 17 32  1  0  0  0  0
 18 33  1  0  0  0  0
 18 34  1  0  0  0  0
 19 35  1  0  0  0  0
 20 36  1  0  0  0  0
 20 37  1  0  0  0  0
 21 38  1  0  0  0  0
 21 39  1  0  0  0  0
 22 40  1  0  0  0  0
 22 41  1  0  0  0  0
 22 42  1  0  0  0  0
M  END
> <BIOSOLVEIT.HYDE_ATOM_SCORES [kJ/mol]>
# Atom-ID; Total; Rec-Desolv; Rec-IA; Lig-Desolv; Lig-IA
1;-0.1934;0.0000;0.0000;-0.1934;0.0000
2;-7.1099;24.1631;-28.9480;2.8321;-5.1571
3;-8.2165;8.9638;-17.0746;3.2835;-3.3892
4;2.2864;0.0000;0.0000;2.2864;0.0000
5;-2.2483;-1.4508;0.0000;-0.7976;0.0000
6;-0.0441;0.0000;0.0000;-0.0441;0.0000
7;0.0000;0.0000;0.0000;0.0000;0.0000
8;-2.7777;-1.5705;0.0000;-1.2073;0.0000
9;-3.1852;6.9613;-8.4288;10.4729;-12.1906
10;-0.0092;0.0000;0.0000;-0.0092;0.0000
11;0.0000;0.0000;0.0000;0.0000;0.0000
12;-9.6333;9.6890;-19.0214;9.5911;-9.8919
13;0.0000;0.0000;0.0000;0.0000;0.0000
14;0.0000;0.0000;0.0000;0.0000;0.0000
15;-0.1395;0.0000;0.0000;-0.1395;0.0000
16;2.1705;0.5364;0.0000;1.6341;0.0000
17;0.0000;0.0000;0.0000;0.0000;0.0000
18;0.0000;0.0000;0.0000;0.0000;0.0000
19;0.0000;0.0000;0.0000;0.0000;0.0000
20;0.0000;0.0000;0.0000;0.0000;0.0000
21;-0.0939;0.0000;0.0000;-0.0939;0.0000
22;0.0000;0.0000;0.0000;0.0000;0.0000

> <BIOSOLVEIT.HYDE_ESTIMATED_AFFINITY_LOWER_BOUNDARY [nM]>
559.700942

> <BIOSOLVEIT.HYDE_ESTIMATED_AFFINITY_UPPER_BOUNDARY [nM]>
55609.597834

> <BIOSOLVEIT.HYDE_LIGAND_EFFICIENCY>
0.334310

> <BIOSOLVEIT.HYDE_LIGAND_LIPOPHILIC_EFFICIENCY>
4.494547

> <BIOSOLVEIT.INTER_CLASH range: 0=green, 1=yellow, 2=red>
0

> <BIOSOLVEIT.INTRA_CLASH range: 0=green, 1=yellow, 2=red>
1

> <BIOSOLVEIT.LOGP>
0.7589

> <BIOSOLVEIT.MOLECULAR_WEIGHT>
328.39

> <BIOSOLVEIT.MOLECULE_CHECKSUM>
LTI5Ljk4Njc7MC4zMzQzMQ==

> <BIOSOLVEIT.TORSION_QUALITY range: 0=green/not rotatable, 1=yellow, 2=red>
1

> <BIOSOLVEIT.TPSA>
98.82

> <cleaned_smiles (canonical SMILES)>
CC1CCC2(CC1)NC(=O)N(NS(=O)(=O)N1CC=CC1)C2=O

$$$$
no name_1_009
phSeeSAR  05142510573D 1   1.00000     0.00000     0
SeeSAR 14.1.2 pham.congdat
 34 35  0  0  0  0            999 V2000
   -5.5646   -1.6483   15.9220 Br  0  0  0  0  0  0  0  0  0  0  0  0
   -3.7256   -2.1680   15.4860 C   0  0  0  0  0  0  0  0  0  0  0  0
   -3.3405   -3.4163   15.0110 N   0  0  0  0  0  0  0  0  0  0  0  0
   -2.0526   -3.5699   14.7710 C   0  0  0  0  0  0  0  0  0  0  0  0
   -1.2753   -2.0901   15.1678 S   0  0  0  0  0  0  0  0  0  0  0  0
   -2.7120   -1.2705   15.6429 C   0  0  0  0  0  0  0  0  0  0  0  0
   -1.3515   -4.8107   14.2490 C   0  0  0  0  0  0  0  0  0  0  0  0
   -1.5110   -4.8864   12.7896 N   0  3  2  0  0  0  0  0  0  0  0  0
   -1.0607   -3.6263   12.1814 C   0  0  0  0  0  0  0  0  0  0  0  0
    0.4486   -3.6558   12.0140 C   0  0  0  0  0  0  0  0  0  0  0  0
    1.1634   -3.9705   10.8148 C   0  0  0  0  0  0  0  0  0  0  0  0
    0.5922   -4.3048    9.5980 O   0  0  0  0  0  0  0  0  0  0  0  0
    1.4154   -4.5047    8.4584 C   0  0  0  0  0  0  0  0  0  0  0  0
    2.4469   -3.8922   11.0657 N   0  0  0  0  0  0  0  0  0  0  0  0
    2.6064   -3.5378   12.3727 N   0  0  0  0  0  0  0  0  0  0  0  0
    1.3722   -3.3880   12.9775 C   0  0  0  0  0  0  0  0  0  0  0  0
    3.8995   -3.3440   13.0445 C   0  0  0  0  0  0  0  0  0  0  0  0
   -2.9266   -5.1100   12.4624 C   0  0  0  0  0  0  0  0  0  0  0  0
   -2.7930   -0.2619   15.9908 H   0  0  0  0  0  0  0  0  0  0  0  0
   -1.7820   -5.6801   14.7003 H   0  0  0  0  0  0  0  0  0  0  0  0
   -0.3106   -4.7610   14.4919 H   0  0  0  0  0  0  0  0  0  0  0  0
   -1.3335   -2.8075   12.8138 H   0  0  0  0  0  0  0  0  0  0  0  0
   -1.5235   -3.5069   11.2240 H   0  0  0  0  0  0  0  0  0  0  0  0
    0.8043   -4.7540    7.6162 H   0  0  0  0  0  0  0  0  0  0  0  0
    1.9606   -3.6078    8.2504 H   0  0  0  0  0  0  0  0  0  0  0  0
    2.1018   -5.3030    8.6498 H   0  0  0  0  0  0  0  0  0  0  0  0
    1.1820   -3.1170   13.9950 H   0  0  0  0  0  0  0  0  0  0  0  0
    3.7335   -3.0706   14.0656 H   0  0  0  0  0  0  0  0  0  0  0  0
    4.4615   -4.2536   13.0057 H   0  0  0  0  0  0  0  0  0  0  0  0
    4.4447   -2.5666   12.5513 H   0  0  0  0  0  0  0  0  0  0  0  0
   -3.0428   -5.1652   11.4001 H   0  0  0  0  0  0  0  0  0  0  0  0
   -3.2544   -6.0273   12.9051 H   0  0  0  0  0  0  0  0  0  0  0  0
   -3.5130   -4.3004   12.8438 H   0  0  0  0  0  0  0  0  0  0  0  0
   -0.9630   -5.6431   12.4332 H   0  0  0  0  0  0  0  0  0  0  0  0
  1  2  1  0  0  0  0
  2  3  1  0  0  0  0
  2  6  2  0  0  0  0
  3  4  2  0  0  0  0
  4  5  1  0  0  0  0
  4  7  1  0  0  0  0
  5  6  1  0  0  0  0
  7  8  1  0  0  0  0
  8  9  1  0  0  0  0
  8 18  1  0  0  0  0
  9 10  1  0  0  0  0
 10 11  1  0  0  0  0
 10 16  2  0  0  0  0
 11 12  1  0  0  0  0
 11 14  2  0  0  0  0
 12 13  1  0  0  0  0
 14 15  1  0  0  0  0
 15 16  1  0  0  0  0
 15 17  1  0  0  0  0
  6 19  1  0  0  0  0
  7 20  1  0  0  0  0
  7 21  1  0  0  0  0
  9 22  1  0  0  0  0
  9 23  1  0  0  0  0
 13 24  1  0  0  0  0
 13 25  1  0  0  0  0
 13 26  1  0  0  0  0
 16 27  1  0  0  0  0
 17 28  1  0  0  0  0
 17 29  1  0  0  0  0
 17 30  1  0  0  0  0
 18 31  1  0  0  0  0
 18 32  1  0  0  0  0
 18 33  1  0  0  0  0
  8 34  1  0  0  0  0
M  CHG  1   8   1
M  END
> <BIOSOLVEIT.HYDE_ATOM_SCORES [kJ/mol]>
# Atom-ID; Total; Rec-Desolv; Rec-IA; Lig-Desolv; Lig-IA
1;-3.0016;-1.5073;0.0000;-1.4943;0.0000
2;-0.2008;0.0000;0.0000;-0.2008;0.0000
3;0.5301;0.0000;0.0000;0.5301;0.0000
4;0.0000;0.0000;0.0000;0.0000;0.0000
5;0.0000;0.0000;0.0000;0.0000;0.0000
6;1.2493;1.6465;0.0000;-0.3972;0.0000
7;-1.9595;-1.2894;0.0000;-0.6701;0.0000
8;-3.5074;3.3622;-5.1083;10.3626;-12.1239
9;-0.3296;0.0000;0.0000;-0.3296;0.0000
10;0.0000;0.0000;0.0000;0.0000;0.0000
11;-0.2989;0.0000;0.0000;-0.2989;0.0000
12;-4.1426;6.9600;-9.6220;3.6555;-5.1362
13;-7.6746;-4.7462;0.0000;-2.9284;0.0000
14;-3.1317;6.7253;-8.4283;6.9996;-8.4283
15;0.0000;0.0000;0.0000;0.0000;0.0000
16;0.0000;0.0000;0.0000;0.0000;0.0000
17;-0.8108;-0.0521;0.0000;-0.7588;0.0000
18;-2.2511;-0.0036;0.0000;-2.2475;0.0000

> <BIOSOLVEIT.HYDE_ESTIMATED_AFFINITY_LOWER_BOUNDARY [nM]>
3379.601195

> <BIOSOLVEIT.HYDE_ESTIMATED_AFFINITY_UPPER_BOUNDARY [nM]>
335783.360499

> <BIOSOLVEIT.HYDE_LIGAND_EFFICIENCY>
0.347864

> <BIOSOLVEIT.HYDE_LIGAND_LIPOPHILIC_EFFICIENCY>
3.609938

> <BIOSOLVEIT.INTER_CLASH range: 0=green, 1=yellow, 2=red>
0

> <BIOSOLVEIT.INTRA_CLASH range: 0=green, 1=yellow, 2=red>
0

> <BIOSOLVEIT.LOGP>
0.8626

> <BIOSOLVEIT.MOLECULAR_WEIGHT>
332.243

> <BIOSOLVEIT.MOLECULE_CHECKSUM>
LTI1LjUyOTM7MC4zNDc4NjQ=

> <BIOSOLVEIT.TORSION_QUALITY range: 0=green/not rotatable, 1=yellow, 2=red>
0

> <BIOSOLVEIT.TPSA>
44.38

> <cleaned_smiles (canonical SMILES)>
CN(Cc1c[n](C)[n]c1OC)Cc1[n]c(Br)c[s]1

$$$$
no name_1_010
phSeeSAR  05142510573D 1   1.00000     0.00000     0
SeeSAR 14.1.2 pham.congdat
 45 46  0  0  0  0            999 V2000
    0.4672    1.9358   10.9993 S   0  0  0  0  0  0  0  0  0  0  0  0
    0.8582    3.1778   11.6140 O   0  0  0  0  0  0  0  0  0  0  0  0
   -0.9792    2.0822   10.3935 N   0  0  0  0  0  0  0  0  0  0  0  0
   -1.5648    1.0213    9.7542 C   0  0  0  0  0  0  0  0  0  0  0  0
   -1.3620    0.8378    8.5499 O   0  0  0  0  0  0  0  0  0  0  0  0
   -2.4433    0.0922   10.5092 C   0  0  0  0  0  0  0  0  0  0  0  0
   -3.6328    0.3736   10.6860 O   0  0  0  0  0  0  0  0  0  0  0  0
   -1.9518   -1.0370   10.9925 N   0  0  0  0  0  0  0  0  0  0  0  0
   -2.6385   -2.0508   11.7406 C   0  0  0  0  0  0  0  0  0  0  0  0
   -3.5167   -2.9341   11.1218 C   0  0  0  0  0  0  0  0  0  0  0  0
   -4.1493   -3.8753   11.8382 N   0  0  0  0  0  0  0  0  0  0  0  0
   -3.9585   -3.9937   13.1607 C   0  0  0  0  0  0  0  0  0  0  0  0
   -3.0912   -3.1367   13.8302 C   0  0  0  0  0  0  0  0  0  0  0  0
   -2.8738   -3.2472   15.2444 N   0  0  0  0  0  0  0  0  0  0  0  0
   -1.7273   -2.5441   15.8414 C   0  0  0  0  0  0  0  0  0  0  0  0
   -2.0393   -2.0717   17.2538 C   0  0  0  0  0  0  0  0  0  0  0  0
   -2.6827   -3.1217   18.0607 N   0  3  0  0  0  0  0  0  0  0  0  0
   -3.9737   -3.4855   17.4517 C   0  0  0  0  0  0  0  0  0  0  0  0
   -3.8105   -4.0497   16.0474 C   0  0  0  0  0  0  0  0  0  0  0  0
   -2.9760   -2.5315   19.3745 C   0  0  0  0  0  0  0  0  0  0  0  0
   -2.4226   -2.1522   13.1108 C   0  0  0  0  0  0  0  0  0  0  0  0
    0.4705    0.6200   12.2423 C   0  0  0  0  0  0  0  0  0  0  0  0
    1.6349    1.5219    9.6796 C   0  0  0  0  0  0  0  0  0  0  0  0
   -0.9822   -1.2047   10.8146 H   0  0  0  0  0  0  0  0  0  0  0  0
   -3.6886   -2.8624   10.0681 H   0  0  0  0  0  0  0  0  0  0  0  0
   -4.4780   -4.7541   13.7054 H   0  0  0  0  0  0  0  0  0  0  0  0
   -1.4857   -1.6956   15.2360 H   0  0  0  0  0  0  0  0  0  0  0  0
   -0.8896   -3.2091   15.8740 H   0  0  0  0  0  0  0  0  0  0  0  0
   -2.6959   -1.2286   17.1982 H   0  0  0  0  0  0  0  0  0  0  0  0
   -1.1261   -1.7818   17.7301 H   0  0  0  0  0  0  0  0  0  0  0  0
   -4.5894   -2.6118   17.4023 H   0  0  0  0  0  0  0  0  0  0  0  0
   -4.4485   -4.2221   18.0656 H   0  0  0  0  0  0  0  0  0  0  0  0
   -3.4386   -5.0506   16.1167 H   0  0  0  0  0  0  0  0  0  0  0  0
   -4.7647   -4.0565   15.5632 H   0  0  0  0  0  0  0  0  0  0  0  0
   -3.4467   -3.2634   19.9971 H   0  0  0  0  0  0  0  0  0  0  0  0
   -2.0643   -2.2076   19.8315 H   0  0  0  0  0  0  0  0  0  0  0  0
   -3.6303   -1.6940   19.2513 H   0  0  0  0  0  0  0  0  0  0  0  0
   -1.7510   -1.4815   13.6049 H   0  0  0  0  0  0  0  0  0  0  0  0
    0.1799   -0.3028   11.7855 H   0  0  0  0  0  0  0  0  0  0  0  0
    1.4532    0.5206   12.6537 H   0  0  0  0  0  0  0  0  0  0  0  0
   -0.2197    0.8647   13.0224 H   0  0  0  0  0  0  0  0  0  0  0  0
    1.3444    0.5990    9.2227 H   0  0  0  0  0  0  0  0  0  0  0  0
    1.6329    2.2996    8.9447 H   0  0  0  0  0  0  0  0  0  0  0  0
    2.6176    1.4224   10.0910 H   0  0  0  0  0  0  0  0  0  0  0  0
   -2.0890   -3.9213   18.1499 H   0  0  0  0  0  0  0  0  0  0  0  0
  1  2  2  0  0  0  0
  1  3  2  0  0  0  0
  1 22  1  0  0  0  0
  1 23  1  0  0  0  0
  3  4  1  0  0  0  0
  4  5  2  0  0  0  0
  4  6  1  0  0  0  0
  6  7  2  0  0  0  0
  6  8  1  0  0  0  0
  8  9  1  0  0  0  0
  9 10  1  0  0  0  0
  9 21  2  0  0  0  0
 10 11  2  0  0  0  0
 11 12  1  0  0  0  0
 12 13  2  0  0  0  0
 13 14  1  0  0  0  0
 13 21  1  0  0  0  0
 14 15  1  0  0  0  0
 14 19  1  0  0  0  0
 15 16  1  0  0  0  0
 16 17  1  0  0  0  0
 17 18  1  0  0  0  0
 17 20  1  0  0  0  0
 18 19  1  0  0  0  0
  8 24  1  0  0  0  0
 10 25  1  0  0  0  0
 12 26  1  0  0  0  0
 15 27  1  0  0  0  0
 15 28  1  0  0  0  0
 16 29  1  0  0  0  0
 16 30  1  0  0  0  0
 18 31  1  0  0  0  0
 18 32  1  0  0  0  0
 19 33  1  0  0  0  0
 19 34  1  0  0  0  0
 20 35  1  0  0  0  0
 20 36  1  0  0  0  0
 20 37  1  0  0  0  0
 21 38  1  0  0  0  0
 22 39  1  0  0  0  0
 22 40  1  0  0  0  0
 22 41  1  0  0  0  0
 23 42  1  0  0  0  0
 23 43  1  0  0  0  0
 23 44  1  0  0  0  0
 17 45  1  0  0  0  0
M  CHG  1  17   1
M  END
> <BIOSOLVEIT.HYDE_ATOM_SCORES [kJ/mol]>
# Atom-ID; Total; Rec-Desolv; Rec-IA; Lig-Desolv; Lig-IA
1;0.0000;0.0000;0.0000;0.0000;0.0000
2;-0.3487;-0.1463;0.0000;-0.2024;0.0000
3;-4.2224;6.5954;-9.2429;6.8536;-8.4286
4;-0.0634;0.0000;0.0000;-0.0634;0.0000
5;-11.5168;9.9103;-19.9463;8.8920;-10.3729
6;-0.3393;0.0000;0.0000;-0.3393;0.0000
7;-5.0271;12.7411;-16.4562;9.0876;-10.3996
8;-0.0875;0.0000;0.0000;-0.0875;0.0000
9;0.0000;0.0000;0.0000;0.0000;0.0000
10;-2.9593;-0.7605;0.0000;-2.1987;0.0000
11;-4.0357;5.9221;-8.4264;6.8950;-8.4264
12;-0.1554;0.8098;0.0000;-0.9652;0.0000
13;-0.0458;0.0000;0.0000;-0.0458;0.0000
14;0.0000;0.0000;0.0000;0.0000;0.0000
15;0.0000;0.0000;0.0000;0.0000;0.0000
16;0.0000;0.0000;0.0000;0.0000;0.0000
17;0.0000;0.0000;0.0000;0.0000;0.0000
18;-0.1108;0.0000;0.0000;-0.1108;0.0000
19;-2.1069;-1.1997;0.0000;-0.9072;0.0000
20;0.0000;0.0000;0.0000;0.0000;0.0000
21;-0.3025;0.0000;0.0000;-0.3025;0.0000
22;-0.4084;0.0000;0.0000;-0.4084;0.0000
23;0.0000;0.0000;0.0000;0.0000;0.0000

> <BIOSOLVEIT.HYDE_ESTIMATED_AFFINITY_LOWER_BOUNDARY [nM]>
197.532553

> <BIOSOLVEIT.HYDE_ESTIMATED_AFFINITY_UPPER_BOUNDARY [nM]>
19626.027071

> <BIOSOLVEIT.HYDE_LIGAND_EFFICIENCY>
0.347307

> <BIOSOLVEIT.HYDE_LIGAND_LIPOPHILIC_EFFICIENCY>
6.446164

> <BIOSOLVEIT.INTER_CLASH range: 0=green, 1=yellow, 2=red>
0

> <BIOSOLVEIT.INTRA_CLASH range: 0=green, 1=yellow, 2=red>
0

> <BIOSOLVEIT.LOGP>
-0.7404

> <BIOSOLVEIT.MOLECULAR_WEIGHT>
340.425

> <BIOSOLVEIT.MOLECULE_CHECKSUM>
LTMyLjU2ODY7MC4zNDczMDc=

> <BIOSOLVEIT.TORSION_QUALITY range: 0=green/not rotatable, 1=yellow, 2=red>
1

> <BIOSOLVEIT.TPSA>
96.17

> <cleaned_smiles (canonical SMILES)>
CN1CCN(CC1)c1c[n]cc(c1)NC(=O)C(=O)N=S(C)(C)=O

> <BIOSOLVEIT.OPTIBRIUM.2C9 pKi>
4.76977

> <BIOSOLVEIT.OPTIBRIUM.2D6 affinity category>
low

> <BIOSOLVEIT.OPTIBRIUM.BBB category>
-

> <BIOSOLVEIT.OPTIBRIUM.BBB log([brain]:[blood])>
-0.858219

> <BIOSOLVEIT.OPTIBRIUM.hERG pIC50>
4.4513

> <BIOSOLVEIT.OPTIBRIUM.HIA category>
+

> <BIOSOLVEIT.OPTIBRIUM.logD>
-0.700508

> <BIOSOLVEIT.OPTIBRIUM.logP>
-0.512531

> <BIOSOLVEIT.OPTIBRIUM.logS @ pH7.4>
2.77289

> <BIOSOLVEIT.OPTIBRIUM.logS>
5.27662

> <BIOSOLVEIT.OPTIBRIUM.P-gp category>
no

> <BIOSOLVEIT.OPTIBRIUM.PPB90 category>
low

$$$$
no name_1_005
phSeeSAR  05142510573D 1   1.00000     0.00000     0
SeeSAR 14.1.2 pham.congdat
 45 47  0  0  0  0            999 V2000
   -1.5031    2.7391    9.4802 O   0  0  0  0  0  0  0  0  0  0  0  0
   -0.8981    1.6527    9.3261 C   0  0  0  0  0  0  0  0  0  0  0  0
   -1.2342    0.8737    8.4038 O   0  5  0  0  0  0  0  0  0  0  0  0
    0.2434    1.2795   10.2577 C   0  0  0  0  0  0  0  0  0  0  0  0
    0.1319   -0.1394   10.6255 N   0  3  0  0  0  0  0  0  0  0  0  0
    1.1932   -0.4133   11.6084 C   0  0  0  0  0  0  0  0  0  0  0  0
    1.1426   -1.8455   12.1202 C   0  0  0  0  0  0  0  0  0  0  0  0
   -0.2324   -2.2577   12.4471 N   0  0  0  0  0  0  0  0  0  0  0  0
   -0.4160   -3.1126   13.4388 C   0  0  0  0  0  0  0  0  0  0  0  0
    0.5543   -3.5466   14.0676 O   0  0  0  0  0  0  0  0  0  0  0  0
   -1.7885   -3.5508   13.7964 C   0  0  0  0  0  0  0  0  0  0  0  0
   -2.3731   -3.0545   14.8284 N   0  0  0  0  0  0  0  0  0  0  0  0
   -3.6261   -3.4600   15.2114 N   0  0  0  0  0  0  0  0  0  0  0  0
   -4.0399   -3.2018   16.5607 C   0  0  0  0  0  0  0  0  0  0  0  0
   -4.0541   -4.2427   17.4828 C   0  0  0  0  0  0  0  0  0  0  0  0
   -4.4568   -3.9857   18.7891 C   0  0  0  0  0  0  0  0  0  0  0  0
   -4.8402   -2.7043   19.1686 C   0  0  0  0  0  0  0  0  0  0  0  0
   -4.8231   -1.6691   18.2392 C   0  0  0  0  0  0  0  0  0  0  0  0
   -4.4219   -1.9162   16.9305 C   0  0  0  0  0  0  0  0  0  0  0  0
   -4.4641   -4.0931   14.3276 C   0  0  0  0  0  0  0  0  0  0  0  0
   -5.6051   -4.4453   14.6472 O   0  0  0  0  0  0  0  0  0  0  0  0
   -3.9773   -4.3692   12.9132 C   0  0  0  0  0  0  0  0  0  0  0  0
   -2.4737   -4.5939   12.9282 C   0  0  0  0  0  0  0  0  0  0  0  0
   -1.4078   -1.7471   11.7231 C   0  0  0  0  0  0  0  0  0  0  0  0
   -1.1965   -0.3214   11.2339 C   0  0  0  0  0  0  0  0  0  0  0  0
    0.1944    1.8817   11.1408 H   0  0  0  0  0  0  0  0  0  0  0  0
    1.1771    1.4474    9.7629 H   0  0  0  0  0  0  0  0  0  0  0  0
    1.0768    0.2536   12.4370 H   0  0  0  0  0  0  0  0  0  0  0  0
    2.1435   -0.2454   11.1462 H   0  0  0  0  0  0  0  0  0  0  0  0
    1.7459   -1.9208   13.0006 H   0  0  0  0  0  0  0  0  0  0  0  0
    1.5300   -2.4975   11.3653 H   0  0  0  0  0  0  0  0  0  0  0  0
   -3.7588   -5.2289   17.1910 H   0  0  0  0  0  0  0  0  0  0  0  0
   -4.4718   -4.7793   19.5066 H   0  0  0  0  0  0  0  0  0  0  0  0
   -5.1482   -2.5142   20.1755 H   0  0  0  0  0  0  0  0  0  0  0  0
   -5.1185   -0.6830   18.5311 H   0  0  0  0  0  0  0  0  0  0  0  0
   -4.4073   -1.1228   16.2128 H   0  0  0  0  0  0  0  0  0  0  0  0
   -4.2062   -3.5318   12.2876 H   0  0  0  0  0  0  0  0  0  0  0  0
   -4.4644   -5.2425   12.5327 H   0  0  0  0  0  0  0  0  0  0  0  0
   -2.2671   -5.5683   13.3191 H   0  0  0  0  0  0  0  0  0  0  0  0
   -2.0971   -4.5231   11.9292 H   0  0  0  0  0  0  0  0  0  0  0  0
   -2.2533   -1.7663   12.3786 H   0  0  0  0  0  0  0  0  0  0  0  0
   -1.5959   -2.3781   10.8797 H   0  0  0  0  0  0  0  0  0  0  0  0
   -1.9450   -0.0916   10.5047 H   0  0  0  0  0  0  0  0  0  0  0  0
   -1.2907    0.3466   12.0644 H   0  0  0  0  0  0  0  0  0  0  0  0
    0.2357   -0.7232    9.8203 H   0  0  0  0  0  0  0  0  0  0  0  0
  1  2  2  0  0  0  0
  2  3  1  0  0  0  0
  2  4  1  0  0  0  0
  4  5  1  0  0  0  0
  5  6  1  0  0  0  0
  5 25  1  0  0  0  0
  6  7  1  0  0  0  0
  7  8  1  0  0  0  0
  8  9  1  0  0  0  0
  8 24  1  0  0  0  0
  9 10  2  0  0  0  0
  9 11  1  0  0  0  0
 11 12  2  0  0  0  0
 11 23  1  0  0  0  0
 12 13  1  0  0  0  0
 13 14  1  0  0  0  0
 13 20  1  0  0  0  0
 14 15  2  0  0  0  0
 14 19  1  0  0  0  0
 15 16  1  0  0  0  0
 16 17  2  0  0  0  0
 17 18  1  0  0  0  0
 18 19  2  0  0  0  0
 20 21  2  0  0  0  0
 20 22  1  0  0  0  0
 22 23  1  0  0  0  0
 24 25  1  0  0  0  0
 25 44  1  0  0  0  0
  4 26  1  0  0  0  0
  4 27  1  0  0  0  0
  6 28  1  0  0  0  0
  6 29  1  0  0  0  0
  7 30  1  0  0  0  0
  7 31  1  0  0  0  0
 15 32  1  0  0  0  0
 16 33  1  0  0  0  0
 17 34  1  0  0  0  0
 18 35  1  0  0  0  0
 19 36  1  0  0  0  0
 22 37  1  0  0  0  0
 22 38  1  0  0  0  0
 23 39  1  0  0  0  0
 23 40  1  0  0  0  0
 24 41  1  0  0  0  0
 24 42  1  0  0  0  0
 25 43  1  0  0  0  0
  5 45  1  0  0  0  0
M  CHG  2   3  -1   5   1
M  END
> <BIOSOLVEIT.HYDE_ATOM_SCORES [kJ/mol]>
# Atom-ID; Total; Rec-Desolv; Rec-IA; Lig-Desolv; Lig-IA
1;-3.8018;14.5278;-17.6582;4.4649;-5.1362
2;0.0000;0.0000;0.0000;0.0000;0.0000
3;-11.1205;8.9447;-19.1447;3.9965;-4.9170
4;-0.3718;0.0000;0.0000;-0.3718;0.0000
5;1.0867;0.0000;0.0000;1.0867;0.0000
6;0.0000;0.0000;0.0000;0.0000;0.0000
7;0.0068;0.0068;0.0000;0.0000;0.0000
8;0.0000;0.0000;0.0000;0.0000;0.0000
9;0.0000;0.0000;0.0000;0.0000;0.0000
10;0.0000;0.0000;0.0000;0.0000;0.0000
11;0.0000;0.0000;0.0000;0.0000;0.0000
12;0.0000;0.0000;0.0000;0.0000;0.0000
13;0.0000;0.0000;0.0000;0.0000;0.0000
14;0.0000;0.0000;0.0000;0.0000;0.0000
15;-2.6300;-1.6482;0.0000;-0.9818;0.0000
16;-0.1235;0.0138;0.0000;-0.1373;0.0000
17;0.0000;0.0000;0.0000;0.0000;0.0000
18;0.0000;0.0000;0.0000;0.0000;0.0000
19;-0.2048;-0.0077;0.0000;-0.1970;0.0000
20;-1.7623;-1.1944;0.0000;-0.5679;0.0000
21;-3.9825;6.0429;-8.3775;8.6889;-10.3369
22;0.5998;2.4830;0.0000;-1.8833;0.0000
23;0.0887;1.1712;0.0000;-1.0825;0.0000
24;-0.6212;0.0000;0.0000;-0.6212;0.0000
25;-0.2423;0.5266;0.0000;-0.7689;0.0000

> <BIOSOLVEIT.HYDE_ESTIMATED_AFFINITY_LOWER_BOUNDARY [nM]>
8424.404875

> <BIOSOLVEIT.HYDE_ESTIMATED_AFFINITY_UPPER_BOUNDARY [nM]>
837014.433396

> <BIOSOLVEIT.HYDE_LIGAND_EFFICIENCY>
0.228248

> <BIOSOLVEIT.HYDE_LIGAND_LIPOPHILIC_EFFICIENCY>
6.429464

> <BIOSOLVEIT.INTER_CLASH range: 0=green, 1=yellow, 2=red>
0

> <BIOSOLVEIT.INTRA_CLASH range: 0=green, 1=yellow, 2=red>
0

> <BIOSOLVEIT.LOGP>
-2.3536

> <BIOSOLVEIT.MOLECULAR_WEIGHT>
344.369

> <BIOSOLVEIT.MOLECULE_CHECKSUM>
LTIzLjI2NTE7MC4yMjgyNDg=

> <BIOSOLVEIT.TORSION_QUALITY range: 0=green/not rotatable, 1=yellow, 2=red>
0

> <BIOSOLVEIT.TPSA>
97.55

> <cleaned_smiles (canonical SMILES)>
OC(=O)CN1CCN(CC1)C(=O)C1CCC(=O)N(N=1)c1ccccc1

> <BIOSOLVEIT.OPTIBRIUM.2C9 pKi>
4.80419

> <BIOSOLVEIT.OPTIBRIUM.2D6 affinity category>
low

> <BIOSOLVEIT.OPTIBRIUM.BBB category>
-

> <BIOSOLVEIT.OPTIBRIUM.BBB log([brain]:[blood])>
-1.83959

> <BIOSOLVEIT.OPTIBRIUM.hERG pIC50>
3.46479

> <BIOSOLVEIT.OPTIBRIUM.HIA category>
-

> <BIOSOLVEIT.OPTIBRIUM.logD>
-2.38548

> <BIOSOLVEIT.OPTIBRIUM.logP>
0.079818

> <BIOSOLVEIT.OPTIBRIUM.logS @ pH7.4>
3.12272

> <BIOSOLVEIT.OPTIBRIUM.logS>
4.28334

> <BIOSOLVEIT.OPTIBRIUM.P-gp category>
no

> <BIOSOLVEIT.OPTIBRIUM.PPB90 category>
low

$$$$
no name_1_005
phSeeSAR  05142510573D 1   1.00000     0.00000     0
SeeSAR 14.1.2 pham.congdat
 51 53  0  0  0  0            999 V2000
   -2.7432    0.9748    9.7665 S   0  0  0  0  0  0  0  0  0  0  0  0
   -4.0808    1.3195   10.1748 O   0  0  0  0  0  0  0  0  0  0  0  0
   -2.7696    0.2320    8.5347 O   0  0  0  0  0  0  0  0  0  0  0  0
   -1.8596    2.3492    9.5862 N   0  0  0  0  0  0  0  0  0  0  0  0
   -0.4556    2.2559    9.0960 C   0  0  0  0  0  0  0  0  0  0  0  0
    0.2926    0.9102    9.0379 C   0  0  0  0  0  0  0  0  0  0  0  0
    0.3560   -0.0015   10.2102 N   0  3  1  0  0  0  0  0  0  0  0  0
    0.7730    0.7455   11.4069 C   0  0  0  0  0  0  0  0  0  0  0  0
    2.2908    0.7709   11.4850 C   0  0  0  0  0  0  0  0  0  0  0  0
    2.7742   -0.3991   12.3239 C   0  0  0  0  0  0  0  0  0  0  0  0
    4.0217   -0.5336   12.9059 N   0  0  0  0  0  0  0  0  0  0  0  0
    4.1003   -1.6520   13.5521 N   0  0  0  0  0  0  0  0  0  0  0  0
    2.9032   -2.2908   13.4150 N   0  0  0  0  0  0  0  0  0  0  0  0
    2.0641   -1.5100   12.6462 C   0  0  0  0  0  0  0  0  0  0  0  0
    2.5597   -3.5963   13.9954 C   0  0  1  0  0  0  0  0  0  0  0  0
    1.3616   -3.4729   14.9246 C   0  0  0  0  0  0  0  0  0  0  0  0
    0.0933   -3.1352   14.1551 C   0  0  0  0  0  0  0  0  0  0  0  0
   -0.1743   -4.1511   13.0553 C   0  0  2  0  0  0  0  0  0  0  0  0
   -0.5180   -5.4597   13.6327 N   0  3  0  0  0  0  0  0  0  0  0  0
    1.0240   -4.2769   12.1264 C   0  0  0  0  0  0  0  0  0  0  0  0
    2.2926   -4.6134   12.8964 C   0  0  0  0  0  0  0  0  0  0  0  0
   -0.8136   -0.8251   10.5674 C   0  0  0  0  0  0  0  0  0  0  0  0
   -2.1041   -0.1576   11.0271 C   0  0  0  0  0  0  0  0  0  0  0  0
   -2.3551    2.9320    8.9421 H   0  0  0  0  0  0  0  0  0  0  0  0
    0.1262    2.8970    9.7247 H   0  0  0  0  0  0  0  0  0  0  0  0
   -0.4588    2.6421    8.0981 H   0  0  0  0  0  0  0  0  0  0  0  0
    1.3055    1.1403    8.7811 H   0  0  0  0  0  0  0  0  0  0  0  0
   -0.1577    0.3499    8.2454 H   0  0  0  0  0  0  0  0  0  0  0  0
    0.3789    0.2689   12.2801 H   0  0  0  0  0  0  0  0  0  0  0  0
    0.4021    1.7474   11.3492 H   0  0  0  0  0  0  0  0  0  0  0  0
    2.6094    1.6880   11.9348 H   0  0  0  0  0  0  0  0  0  0  0  0
    2.6999    0.6961   10.4992 H   0  0  0  0  0  0  0  0  0  0  0  0
    1.0574   -1.7348   12.3618 H   0  0  0  0  0  0  0  0  0  0  0  0
    3.3953   -3.9369   14.5704 H   0  0  0  0  0  0  0  0  0  0  0  0
    1.5526   -2.6983   15.6376 H   0  0  0  0  0  0  0  0  0  0  0  0
    1.2211   -4.4020   15.4363 H   0  0  0  0  0  0  0  0  0  0  0  0
    0.2005   -2.1657   13.7153 H   0  0  0  0  0  0  0  0  0  0  0  0
   -0.7344   -3.1297   14.8332 H   0  0  0  0  0  0  0  0  0  0  0  0
   -1.0093   -3.8094   12.4799 H   0  0  0  0  0  0  0  0  0  0  0  0
   -1.3603   -5.3781   14.1654 H   0  0  0  0  0  0  0  0  0  0  0  0
   -0.6516   -6.1239   12.8972 H   0  0  0  0  0  0  0  0  0  0  0  0
    1.1647   -3.3490   11.6126 H   0  0  0  0  0  0  0  0  0  0  0  0
    0.8328   -5.0530   11.4151 H   0  0  0  0  0  0  0  0  0  0  0  0
    2.1859   -5.5826   13.3371 H   0  0  0  0  0  0  0  0  0  0  0  0
    3.1203   -4.6190   12.2184 H   0  0  0  0  0  0  0  0  0  0  0  0
   -0.5034   -1.4752   11.3586 H   0  0  0  0  0  0  0  0  0  0  0  0
   -1.0576   -1.4065    9.7030 H   0  0  0  0  0  0  0  0  0  0  0  0
   -2.8370   -0.9125   11.2215 H   0  0  0  0  0  0  0  0  0  0  0  0
   -1.9117    0.3923   11.9245 H   0  0  0  0  0  0  0  0  0  0  0  0
    1.0962   -0.6455   10.0170 H   0  0  0  0  0  0  0  0  0  0  0  0
    0.2245   -5.7666   14.2282 H   0  0  0  0  0  0  0  0  0  0  0  0
  1  2  2  0  0  0  0
  1  3  2  0  0  0  0
  1  4  1  0  0  0  0
  1 23  1  0  0  0  0
  4  5  1  0  0  0  0
  5  6  1  0  0  0  0
  6  7  1  0  0  0  0
  7  8  1  0  0  0  0
  7 22  1  0  0  0  0
  8  9  1  0  0  0  0
  9 10  1  0  0  0  0
 10 11  1  0  0  0  0
 10 14  2  0  0  0  0
 11 12  2  0  0  0  0
 12 13  1  0  0  0  0
 13 14  1  0  0  0  0
 13 15  1  0  0  0  0
 15 16  1  0  0  0  0
 15 21  1  0  0  0  0
 16 17  1  0  0  0  0
 17 18  1  0  0  0  0
 18 19  1  0  0  0  0
 18 20  1  0  0  0  0
 20 21  1  0  0  0  0
 22 23  1  0  0  0  0
  4 24  1  0  0  0  0
  5 25  1  0  0  0  0
  5 26  1  0  0  0  0
  6 27  1  0  0  0  0
  6 28  1  0  0  0  0
  8 29  1  0  0  0  0
  8 30  1  0  0  0  0
  9 31  1  0  0  0  0
  9 32  1  0  0  0  0
 14 33  1  0  0  0  0
 15 34  1  0  0  0  0
 16 35  1  0  0  0  0
 16 36  1  0  0  0  0
 17 37  1  0  0  0  0
 17 38  1  0  0  0  0
 18 39  1  0  0  0  0
 19 40  1  0  0  0  0
 19 41  1  0  0  0  0
 20 42  1  0  0  0  0
 20 43  1  0  0  0  0
 21 44  1  0  0  0  0
 21 45  1  0  0  0  0
 22 46  1  0  0  0  0
 22 47  1  0  0  0  0
 23 48  1  0  0  0  0
 23 49  1  0  0  0  0
  7 50  1  0  0  0  0
 19 51  1  0  0  0  0
M  CHG  2   7   1  19   1
M  END
> <BIOSOLVEIT.HYDE_ATOM_SCORES [kJ/mol]>
# Atom-ID; Total; Rec-Desolv; Rec-IA; Lig-Desolv; Lig-IA
1;-0.1456;0.0000;0.0000;-0.1456;0.0000
2;-6.8407;23.9777;-28.8827;2.8179;-4.7536
3;-7.8817;10.4538;-17.8434;3.0497;-3.5418
4;-3.0886;6.2320;-8.4288;11.2988;-12.1906
5;-1.0402;-0.1954;0.0000;-0.8448;0.0000
6;-0.2953;0.0000;0.0000;-0.2953;0.0000
7;0.0000;0.0000;0.0000;0.0000;0.0000
8;-0.3523;0.0000;0.0000;-0.3523;0.0000
9;0.0000;0.0000;0.0000;0.0000;0.0000
10;0.0000;0.0000;0.0000;0.0000;0.0000
11;0.0000;0.0000;0.0000;0.0000;0.0000
12;0.2228;0.0000;0.0000;0.2228;0.0000
13;0.0000;0.0000;0.0000;0.0000;0.0000
14;0.0000;0.0000;0.0000;0.0000;0.0000
15;0.3019;0.4137;0.0000;-0.1117;0.0000
16;-0.0892;0.0000;0.0000;-0.0892;0.0000
17;0.0000;0.0000;0.0000;0.0000;0.0000
18;0.1572;0.2351;0.0000;-0.0779;0.0000
19;-3.0498;2.6824;-5.1363;11.5943;-12.1903
20;-0.7838;-0.1003;0.0000;-0.6835;0.0000
21;-1.2279;-0.3265;0.0000;-0.9014;0.0000
22;-0.6915;0.0000;0.0000;-0.6915;0.0000
23;-1.0999;0.0000;0.0000;-1.0999;0.0000

> <BIOSOLVEIT.HYDE_ESTIMATED_AFFINITY_LOWER_BOUNDARY [nM]>
2114.422308

> <BIOSOLVEIT.HYDE_ESTIMATED_AFFINITY_UPPER_BOUNDARY [nM]>
210080.357751

> <BIOSOLVEIT.HYDE_LIGAND_EFFICIENCY>
0.284639

> <BIOSOLVEIT.HYDE_LIGAND_LIPOPHILIC_EFFICIENCY>
6.661511

> <BIOSOLVEIT.INTER_CLASH range: 0=green, 1=yellow, 2=red>
0

> <BIOSOLVEIT.INTRA_CLASH range: 0=green, 1=yellow, 2=red>
1

> <BIOSOLVEIT.LOGP>
-1.9853

> <BIOSOLVEIT.MOLECULAR_WEIGHT>
344.48

> <BIOSOLVEIT.MOLECULE_CHECKSUM>
LTI2LjY5MTk7MC4yODQ2Mzk=

> <BIOSOLVEIT.TORSION_QUALITY range: 0=green/not rotatable, 1=yellow, 2=red>
1

> <BIOSOLVEIT.TPSA>
108.96

> <cleaned_smiles (canonical SMILES)>
NC1CCC(CC1)[n]1cc(CCN2CCS(=O)(=O)NCC2)[n][n]1

$$$$
no name_1_008
phSeeSAR  05142510573D 1   1.00000     0.00000     0
SeeSAR 14.1.2 pham.congdat
 46 47  0  0  0  0            999 V2000
   -3.4095    0.9475   10.4416 S   0  0  0  0  0  0  0  0  0  0  0  0
   -2.6037    1.4473    8.6446 S   0  0  0  0  0  0  0  0  0  0  0  0
   -0.9424    2.0679    9.0079 C   0  0  0  0  0  0  0  0  0  0  0  0
   -0.0049    0.9869    9.5395 C   0  0  0  0  0  0  0  0  0  0  0  0
   -0.4720    0.2892   10.7572 N   0  0  0  0  0  0  0  0  0  0  0  0
   -0.0992    0.7780   11.9296 C   0  0  0  0  0  0  0  0  0  0  0  0
    0.6151    1.7841   11.9802 O   0  0  0  0  0  0  0  0  0  0  0  0
   -0.5400    0.1164   13.1839 C   0  0  0  0  0  0  0  0  0  0  0  0
   -0.3519    0.7210   14.3591 C   0  0  0  0  0  0  0  0  0  0  0  0
   -0.7927    0.0594   15.6134 C   0  0  0  0  0  0  0  0  0  0  0  0
    0.0144   -0.5907   16.2852 O   0  0  0  0  0  0  0  0  0  0  0  0
   -2.0499    0.1666   16.0114 N   0  0  0  0  0  0  0  0  0  0  0  0
   -2.4861   -0.4883   17.2530 C   0  0  0  0  0  0  0  0  0  0  0  0
   -3.3860   -1.6654   16.9156 C   0  0  1  0  0  0  0  0  0  0  0  0
   -4.6176   -1.1775   16.1703 C   0  0  0  0  0  0  0  0  0  0  0  0
   -5.5172   -2.3545   15.8285 C   0  0  0  0  0  0  0  0  0  0  0  0
   -4.7618   -3.3641   14.9795 C   0  0  2  0  0  0  0  0  0  0  0  0
   -5.6048   -4.4623   14.6655 O   0  0  0  0  0  0  0  0  0  0  0  0
   -3.5331   -3.8507   15.7305 C   0  0  0  0  0  0  0  0  0  0  0  0
   -2.6298   -2.6752   16.0675 C   0  0  0  0  0  0  0  0  0  0  0  0
   -1.3155   -0.9244   10.7540 C   0  0  0  0  0  0  0  0  0  0  0  0
   -2.8231   -0.7140   10.8650 C   0  0  0  0  0  0  0  0  0  0  0  0
   -1.0207    2.8425    9.7420 H   0  0  0  0  0  0  0  0  0  0  0  0
   -0.5243    2.4697    8.1087 H   0  0  0  0  0  0  0  0  0  0  0  0
    0.9361    1.4451    9.7615 H   0  0  0  0  0  0  0  0  0  0  0  0
    0.1271    0.2557    8.7695 H   0  0  0  0  0  0  0  0  0  0  0  0
   -1.0084   -0.8448   13.1457 H   0  0  0  0  0  0  0  0  0  0  0  0
    0.1165    1.6822   14.3973 H   0  0  0  0  0  0  0  0  0  0  0  0
   -2.7033    0.6932   15.4676 H   0  0  0  0  0  0  0  0  0  0  0  0
   -3.0260    0.2122   17.8552 H   0  0  0  0  0  0  0  0  0  0  0  0
   -1.6302   -0.8368   17.7922 H   0  0  0  0  0  0  0  0  0  0  0  0
   -3.6949   -2.1378   17.8247 H   0  0  0  0  0  0  0  0  0  0  0  0
   -4.3154   -0.6885   15.2680 H   0  0  0  0  0  0  0  0  0  0  0  0
   -5.1551   -0.4879   16.7870 H   0  0  0  0  0  0  0  0  0  0  0  0
   -6.3686   -2.0021   15.2845 H   0  0  0  0  0  0  0  0  0  0  0  0
   -5.8416   -2.8256   16.7328 H   0  0  0  0  0  0  0  0  0  0  0  0
   -4.4508   -2.8923   14.0709 H   0  0  0  0  0  0  0  0  0  0  0  0
   -5.8650   -4.9344   15.5078 H   0  0  0  0  0  0  0  0  0  0  0  0
   -2.9966   -4.5459   15.1192 H   0  0  0  0  0  0  0  0  0  0  0  0
   -3.8389   -4.3331   16.6352 H   0  0  0  0  0  0  0  0  0  0  0  0
   -1.7779   -3.0273   16.6109 H   0  0  0  0  0  0  0  0  0  0  0  0
   -2.3062   -2.2059   15.1620 H   0  0  0  0  0  0  0  0  0  0  0  0
   -1.0117   -1.5321   11.5806 H   0  0  0  0  0  0  0  0  0  0  0  0
   -1.1280   -1.4468    9.8393 H   0  0  0  0  0  0  0  0  0  0  0  0
   -3.3027   -1.4104   10.2093 H   0  0  0  0  0  0  0  0  0  0  0  0
   -3.1113   -0.9184   11.8750 H   0  0  0  0  0  0  0  0  0  0  0  0
  1  2  1  0  0  0  0
  1 22  1  0  0  0  0
  2  3  1  0  0  0  0
  3  4  1  0  0  0  0
  4  5  1  0  0  0  0
  5  6  1  0  0  0  0
  5 21  1  0  0  0  0
  6  7  2  0  0  0  0
  6  8  1  0  0  0  0
  8  9  2  0  0  0  0
  9 10  1  0  0  0  0
 10 11  2  0  0  0  0
 10 12  1  0  0  0  0
 12 13  1  0  0  0  0
 13 14  1  0  0  0  0
 14 15  1  0  0  0  0
 14 20  1  0  0  0  0
 15 16  1  0  0  0  0
 16 17  1  0  0  0  0
 17 18  1  0  0  0  0
 17 19  1  0  0  0  0
 19 20  1  0  0  0  0
 21 22  1  0  0  0  0
  3 23  1  0  0  0  0
  3 24  1  0  0  0  0
  4 25  1  0  0  0  0
  4 26  1  0  0  0  0
  8 27  1  0  0  0  0
  9 28  1  0  0  0  0
 12 29  1  0  0  0  0
 13 30  1  0  0  0  0
 13 31  1  0  0  0  0
 14 32  1  0  0  0  0
 15 33  1  0  0  0  0
 15 34  1  0  0  0  0
 16 35  1  0  0  0  0
 16 36  1  0  0  0  0
 17 37  1  0  0  0  0
 18 38  1  0  0  0  0
 19 39  1  0  0  0  0
 19 40  1  0  0  0  0
 20 41  1  0  0  0  0
 20 42  1  0  0  0  0
 21 43  1  0  0  0  0
 21 44  1  0  0  0  0
 22 45  1  0  0  0  0
 22 46  1  0  0  0  0
M  END
> <BIOSOLVEIT.HYDE_ATOM_SCORES [kJ/mol]>
# Atom-ID; Total; Rec-Desolv; Rec-IA; Lig-Desolv; Lig-IA
1;3.5506;20.5911;-14.9318;-0.4033;-1.7054
2;-13.0493;11.3043;-22.2284;-0.1104;-2.0147
3;-1.0812;0.2152;0.0000;-1.2965;0.0000
4;-0.1351;0.0000;0.0000;-0.1351;0.0000
5;0.0000;0.0000;0.0000;0.0000;0.0000
6;-0.1790;0.0000;0.0000;-0.1790;0.0000
7;-0.0651;0.0000;0.0000;-0.0651;0.0000
8;-0.1055;0.0000;0.0000;-0.1055;0.0000
9;-2.5488;-1.9174;0.0000;-0.6314;0.0000
10;0.0000;0.0000;0.0000;0.0000;0.0000
11;0.0000;0.0000;0.0000;0.0000;0.0000
12;-2.5955;9.2119;-10.4000;7.0212;-8.4286
13;0.0000;0.0000;0.0000;0.0000;0.0000
14;0.0000;0.0000;0.0000;0.0000;0.0000
15;-0.8728;0.0000;0.0000;-0.8728;0.0000
16;-3.9651;-2.8147;0.0000;-1.1504;0.0000
17;-0.4008;0.0000;0.0000;-0.4008;0.0000
18;-4.2078;5.6645;-8.4287;8.1787;-9.6223
19;-1.2094;-0.5953;0.0000;-0.6141;0.0000
20;0.0000;0.0000;0.0000;0.0000;0.0000
21;-2.0296;-1.3205;0.0000;-0.7091;0.0000
22;-1.7787;-0.0213;0.0000;-1.7574;0.0000

> <BIOSOLVEIT.HYDE_ESTIMATED_AFFINITY_LOWER_BOUNDARY [nM]>
301.560568

> <BIOSOLVEIT.HYDE_ESTIMATED_AFFINITY_UPPER_BOUNDARY [nM]>
29961.825429

> <BIOSOLVEIT.HYDE_LIGAND_EFFICIENCY>
0.351402

> <BIOSOLVEIT.HYDE_LIGAND_LIPOPHILIC_EFFICIENCY>
4.088529

> <BIOSOLVEIT.INTER_CLASH range: 0=green, 1=yellow, 2=red>
0

> <BIOSOLVEIT.INTRA_CLASH range: 0=green, 1=yellow, 2=red>
0

> <BIOSOLVEIT.LOGP>
1.4335

> <BIOSOLVEIT.MOLECULAR_WEIGHT>
344.496

> <BIOSOLVEIT.MOLECULE_CHECKSUM>
LTMxLjUxOTg7MC4zNTE0MDI=

> <BIOSOLVEIT.TORSION_QUALITY range: 0=green/not rotatable, 1=yellow, 2=red>
0

> <BIOSOLVEIT.TPSA>
69.64

> <cleaned_smiles (canonical SMILES)>
OC1CCC(CNC(=O)C=CC(=O)N2CCSSCC2)CC1

> <BIOSOLVEIT.OPTIBRIUM.2C9 pKi>
4.34287

> <BIOSOLVEIT.OPTIBRIUM.2D6 affinity category>
low

> <BIOSOLVEIT.OPTIBRIUM.BBB category>
-

> <BIOSOLVEIT.OPTIBRIUM.BBB log([brain]:[blood])>
-0.759067

> <BIOSOLVEIT.OPTIBRIUM.hERG pIC50>
4.23051

> <BIOSOLVEIT.OPTIBRIUM.HIA category>
+

> <BIOSOLVEIT.OPTIBRIUM.logD>
0.964113

> <BIOSOLVEIT.OPTIBRIUM.logP>
0.964113

> <BIOSOLVEIT.OPTIBRIUM.logS @ pH7.4>
3.38553

> <BIOSOLVEIT.OPTIBRIUM.logS>
3.38553

> <BIOSOLVEIT.OPTIBRIUM.P-gp category>
no

> <BIOSOLVEIT.OPTIBRIUM.PPB90 category>
low

$$$$
no name_1_001
phSeeSAR  05142510573D 1   1.00000     0.00000     0
SeeSAR 14.1.2 pham.congdat
 39 40  0  0  0  0            999 V2000
   -4.8930   -4.1857   15.0371 F   0  0  0  0  0  0  0  0  0  0  0  0
   -5.4637   -3.9858   16.2216 C   0  0  0  0  0  0  0  0  0  0  0  0
   -6.1000   -5.0910   16.5993 F   0  0  0  0  0  0  0  0  0  0  0  0
   -6.3327   -2.9830   16.1316 F   0  0  0  0  0  0  0  0  0  0  0  0
   -4.3957   -3.6403   17.2469 C   0  0  0  0  0  0  0  0  0  0  0  0
   -3.6133   -2.4958   17.1239 C   0  0  0  0  0  0  0  0  0  0  0  0
   -2.6449   -2.2098   18.0799 C   0  0  0  0  0  0  0  0  0  0  0  0
   -2.4582   -3.0673   19.1595 C   0  0  0  0  0  0  0  0  0  0  0  0
   -3.2400   -4.2116   19.2823 C   0  0  0  0  0  0  0  0  0  0  0  0
   -4.2091   -4.4979   18.3258 C   0  0  0  0  0  0  0  0  0  0  0  0
   -3.8167   -1.5590   15.9440 C   0  0  1  0  0  0  0  0  0  0  0  0
   -4.0394   -0.2398   16.4199 O   0  0  0  0  0  0  0  0  0  0  0  0
   -2.5783   -1.5775   15.0628 C   0  0  0  0  0  0  0  0  0  0  0  0
   -1.9663   -2.6345   14.8800 O   0  0  0  0  0  0  0  0  0  0  0  0
   -2.1560   -0.4613   14.4919 N   0  0  0  0  0  0  0  0  0  0  0  0
   -0.9583   -0.4793   13.6397 C   0  0  0  0  0  0  0  0  0  0  0  0
   -1.2766   -1.1862   12.3339 C   0  0  1  0  0  0  0  0  0  0  0  0
   -0.8061   -2.5243   12.3230 O   0  0  0  0  0  0  0  0  0  0  0  0
   -2.7169   -0.9574   11.9391 C   0  0  0  0  0  0  0  0  0  0  0  0
   -2.2387   -0.8204   10.5108 C   0  0  1  0  0  0  0  0  0  0  0  0
   -2.9223    0.4217    9.9687 C   0  0  0  0  0  0  0  0  0  0  0  0
   -3.6805    1.0922   10.7073 O   0  0  0  0  0  0  0  0  0  0  0  0
   -2.7284    0.7764    8.7828 O   0  5  0  0  0  0  0  0  0  0  0  0
   -0.9433   -0.3344   11.1258 C   0  0  0  0  0  0  0  0  0  0  0  0
   -2.0432   -1.3301   17.9851 H   0  0  0  0  0  0  0  0  0  0  0  0
   -1.7134   -2.8467   19.8954 H   0  0  0  0  0  0  0  0  0  0  0  0
   -3.0960   -4.8715   20.1122 H   0  0  0  0  0  0  0  0  0  0  0  0
   -4.8107   -5.3778   18.4203 H   0  0  0  0  0  0  0  0  0  0  0  0
   -4.6639   -1.8807   15.3751 H   0  0  0  0  0  0  0  0  0  0  0  0
   -4.4719    0.3052   15.7016 H   0  0  0  0  0  0  0  0  0  0  0  0
   -2.6515    0.3946   14.6399 H   0  0  0  0  0  0  0  0  0  0  0  0
   -0.1699   -0.9985   14.1435 H   0  0  0  0  0  0  0  0  0  0  0  0
   -0.6506    0.5250   13.4358 H   0  0  0  0  0  0  0  0  0  0  0  0
   -1.1196   -2.9945   13.1479 H   0  0  0  0  0  0  0  0  0  0  0  0
   -3.1560   -0.0720   12.3489 H   0  0  0  0  0  0  0  0  0  0  0  0
   -3.3647   -1.7908   12.1141 H   0  0  0  0  0  0  0  0  0  0  0  0
   -2.2131   -1.6962    9.8966 H   0  0  0  0  0  0  0  0  0  0  0  0
   -0.0602   -0.6317   10.5998 H   0  0  0  0  0  0  0  0  0  0  0  0
   -0.9072    0.7176   11.3175 H   0  0  0  0  0  0  0  0  0  0  0  0
  1  2  1  0  0  0  0
  2  3  1  0  0  0  0
  2  4  1  0  0  0  0
  2  5  1  0  0  0  0
  5  6  1  0  0  0  0
  5 10  2  0  0  0  0
  6  7  2  0  0  0  0
  6 11  1  0  0  0  0
  7  8  1  0  0  0  0
  8  9  2  0  0  0  0
  9 10  1  0  0  0  0
 11 12  1  0  0  0  0
 11 13  1  0  0  0  0
 13 14  2  0  0  0  0
 13 15  1  0  0  0  0
 15 16  1  0  0  0  0
 16 17  1  0  0  0  0
 17 18  1  0  0  0  0
 17 19  1  0  0  0  0
 17 24  1  0  0  0  0
 19 20  1  0  0  0  0
 20 21  1  0  0  0  0
 20 24  1  0  0  0  0
 21 22  2  0  0  0  0
 21 23  1  0  0  0  0
  7 25  1  0  0  0  0
  8 26  1  0  0  0  0
  9 27  1  0  0  0  0
 10 28  1  0  0  0  0
 11 29  1  0  0  0  0
 12 30  1  0  0  0  0
 15 31  1  0  0  0  0
 16 32  1  0  0  0  0
 16 33  1  0  0  0  0
 18 34  1  0  0  0  0
 19 35  1  0  0  0  0
 19 36  1  0  0  0  0
 20 37  1  0  0  0  0
 24 39  1  0  0  0  0
 24 38  1  0  0  0  0
M  CHG  1  23  -1
M  END
> <BIOSOLVEIT.HYDE_ATOM_SCORES [kJ/mol]>
# Atom-ID; Total; Rec-Desolv; Rec-IA; Lig-Desolv; Lig-IA
1;-1.4417;-0.3767;0.0000;-1.0650;0.0000
2;-0.0583;0.0000;0.0000;-0.0583;0.0000
3;-2.6352;-1.6620;0.0000;-0.9732;0.0000
4;-0.5440;0.3741;0.0000;-0.9181;0.0000
5;0.0000;0.0000;0.0000;0.0000;0.0000
6;0.0000;0.0000;0.0000;0.0000;0.0000
7;0.0000;0.0000;0.0000;0.0000;0.0000
8;0.0000;0.0000;0.0000;0.0000;0.0000
9;-0.1581;0.0000;0.0000;-0.1581;0.0000
10;-1.6890;-0.7909;0.0000;-0.8982;0.0000
11;-0.5736;0.0000;0.0000;-0.5736;0.0000
12;-1.6398;8.8407;-9.6378;8.0744;-8.9170
13;0.0000;0.0000;0.0000;0.0000;0.0000
14;0.1418;0.0000;0.0000;0.1418;0.0000
15;2.4521;1.7681;-1.2432;6.9650;-5.0379
16;-0.5335;0.0000;0.0000;-0.5335;0.0000
17;0.0000;0.0000;0.0000;0.0000;0.0000
18;0.7932;-0.0106;0.0000;0.8038;0.0000
19;-3.2400;-1.9578;0.0000;-1.2822;0.0000
20;-2.2872;-1.3548;0.0000;-0.9324;0.0000
21;-0.4505;0.0000;0.0000;-0.4505;0.0000
22;4.1433;13.6410;-8.4043;4.0280;-5.1215
23;-11.2144;9.4194;-19.9935;4.4948;-5.1350
24;-0.2156;0.0000;0.0000;-0.2156;0.0000

> <BIOSOLVEIT.HYDE_ESTIMATED_AFFINITY_LOWER_BOUNDARY [nM]>
38198.996127

> <BIOSOLVEIT.HYDE_ESTIMATED_AFFINITY_UPPER_BOUNDARY [nM]>
3795296.115582

> <BIOSOLVEIT.HYDE_LIGAND_EFFICIENCY>
0.199462

> <BIOSOLVEIT.HYDE_LIGAND_LIPOPHILIC_EFFICIENCY>
3.673351

> <BIOSOLVEIT.INTER_CLASH range: 0=green, 1=yellow, 2=red>
0

> <BIOSOLVEIT.INTRA_CLASH range: 0=green, 1=yellow, 2=red>
0

> <BIOSOLVEIT.LOGP>
-0.254

> <BIOSOLVEIT.MOLECULAR_WEIGHT>
346.28

> <BIOSOLVEIT.MOLECULE_CHECKSUM>
LTE5LjUxNzc7MC4xOTk0NjI=

> <BIOSOLVEIT.TORSION_QUALITY range: 0=green/not rotatable, 1=yellow, 2=red>
1

> <BIOSOLVEIT.TPSA>
109.69

> <cleaned_smiles (canonical SMILES)>
OC1(CNC(=O)C(O)c2ccccc2C(F)(F)F)CC(C1)C(O)=O

$$$$
no name_1_001
phSeeSAR  05142510573D 1   1.00000     0.00000     0
SeeSAR 14.1.2 pham.congdat
 41 43  0  0  0  0            999 V2000
   -1.0731    0.6589    9.8248 S   0  0  0  0  0  0  0  0  0  0  0  0
   -1.8902    0.4405    8.6593 O   0  0  0  0  0  0  0  0  0  0  0  0
   -1.1398    2.0463   10.2047 O   0  0  0  0  0  0  0  0  0  0  0  0
   -1.6173   -0.2669   11.0511 N   0  0  0  0  0  0  0  0  0  0  0  0
   -1.0782   -0.0992   12.3712 C   0  0  0  0  0  0  0  0  0  0  0  0
   -1.6959   -0.4947   13.6013 C   0  0  0  0  0  0  0  0  0  0  0  0
   -2.9311   -1.1094   13.7177 O   0  0  0  0  0  0  0  0  0  0  0  0
   -3.2498   -1.8465   14.8891 C   0  0  0  0  0  0  0  0  0  0  0  0
   -3.6486   -3.2508   14.4811 C   0  0  0  0  0  0  0  0  0  0  0  0
   -4.7026   -3.6117   15.5056 C   0  0  0  0  0  0  0  0  0  0  0  0
   -5.4978   -2.3290   15.6131 C   0  0  0  0  0  0  0  0  0  0  0  0
   -4.4407   -1.2439   15.6091 C   0  0  0  0  0  0  0  0  0  0  0  0
   -0.9037   -0.1824   14.6007 N   0  0  0  0  0  0  0  0  0  0  0  0
    0.2093    0.4009   14.0699 N   0  0  0  0  0  0  0  0  0  0  0  0
    0.1172    0.4627   12.6926 C   0  0  0  0  0  0  0  0  0  0  0  0
    1.3491    0.8993   14.8537 C   0  0  0  0  0  0  0  0  0  0  0  0
    0.6435    0.2170    9.4503 C   0  0  0  0  0  0  0  0  0  0  0  0
    0.8514   -1.0343    8.6193 C   0  0  0  0  0  0  0  0  0  0  0  0
    1.0431   -0.0256    7.1362 S   0  0  0  0  0  0  0  0  0  0  0  0
    2.2041   -0.3654    6.3539 O   0  0  0  0  0  0  0  0  0  0  0  0
   -0.1612    0.1934    6.3727 O   0  0  0  0  0  0  0  0  0  0  0  0
    1.3920    1.1199    8.4879 C   0  0  0  0  0  0  0  0  0  0  0  0
   -2.3267   -0.9516   10.8840 H   0  0  0  0  0  0  0  0  0  0  0  0
   -2.4038   -1.8804   15.5433 H   0  0  0  0  0  0  0  0  0  0  0  0
   -2.8146   -3.9191   14.5344 H   0  0  0  0  0  0  0  0  0  0  0  0
   -4.0534   -3.2640   13.4907 H   0  0  0  0  0  0  0  0  0  0  0  0
   -4.2585   -3.8724   16.4435 H   0  0  0  0  0  0  0  0  0  0  0  0
   -5.3148   -4.4201   15.1639 H   0  0  0  0  0  0  0  0  0  0  0  0
   -6.0631   -2.3066   16.5214 H   0  0  0  0  0  0  0  0  0  0  0  0
   -6.1589   -2.2198   14.7788 H   0  0  0  0  0  0  0  0  0  0  0  0
   -4.7943   -0.3784   15.0889 H   0  0  0  0  0  0  0  0  0  0  0  0
   -4.1762   -0.9748   16.6104 H   0  0  0  0  0  0  0  0  0  0  0  0
    0.8398    0.8699   12.0166 H   0  0  0  0  0  0  0  0  0  0  0  0
    2.0841    1.3095   14.1932 H   0  0  0  0  0  0  0  0  0  0  0  0
    1.0131    1.6584   15.5289 H   0  0  0  0  0  0  0  0  0  0  0  0
    1.7796    0.0927   15.4096 H   0  0  0  0  0  0  0  0  0  0  0  0
    1.1964    0.1338   10.3626 H   0  0  0  0  0  0  0  0  0  0  0  0
    0.0044   -1.6877    8.5957 H   0  0  0  0  0  0  0  0  0  0  0  0
    1.7253   -1.5926    8.8829 H   0  0  0  0  0  0  0  0  0  0  0  0
    2.4330    1.2277    8.7108 H   0  0  0  0  0  0  0  0  0  0  0  0
    0.9515    2.0872    8.3649 H   0  0  0  0  0  0  0  0  0  0  0  0
  1  2  2  0  0  0  0
  1  3  2  0  0  0  0
  1  4  1  0  0  0  0
  1 17  1  0  0  0  0
  4  5  1  0  0  0  0
  5  6  1  0  0  0  0
  5 15  2  0  0  0  0
  6  7  1  0  0  0  0
  6 13  2  0  0  0  0
  7  8  1  0  0  0  0
  8  9  1  0  0  0  0
  8 12  1  0  0  0  0
  9 10  1  0  0  0  0
 10 11  1  0  0  0  0
 11 12  1  0  0  0  0
 13 14  1  0  0  0  0
 14 15  1  0  0  0  0
 14 16  1  0  0  0  0
 17 18  1  0  0  0  0
 17 22  1  0  0  0  0
 18 19  1  0  0  0  0
 19 20  2  0  0  0  0
 19 21  2  0  0  0  0
 19 22  1  0  0  0  0
  4 23  1  0  0  0  0
  8 24  1  0  0  0  0
  9 25  1  0  0  0  0
  9 26  1  0  0  0  0
 10 27  1  0  0  0  0
 10 28  1  0  0  0  0
 11 29  1  0  0  0  0
 11 30  1  0  0  0  0
 12 31  1  0  0  0  0
 12 32  1  0  0  0  0
 15 33  1  0  0  0  0
 16 34  1  0  0  0  0
 16 35  1  0  0  0  0
 16 36  1  0  0  0  0
 17 37  1  0  0  0  0
 18 38  1  0  0  0  0
 18 39  1  0  0  0  0
 22 40  1  0  0  0  0
 22 41  1  0  0  0  0
M  END
> <BIOSOLVEIT.HYDE_ATOM_SCORES [kJ/mol]>
# Atom-ID; Total; Rec-Desolv; Rec-IA; Lig-Desolv; Lig-IA
1;0.0000;0.0000;0.0000;0.0000;0.0000
2;-12.7682;7.4534;-19.9614;3.7021;-3.9622
3;-3.0578;6.4237;-8.4285;2.9165;-3.9695
4;-0.0488;0.0000;0.0000;-0.0488;0.0000
5;-0.2755;0.0000;0.0000;-0.2755;0.0000
6;-0.5756;-0.0718;0.0000;-0.5038;0.0000
7;2.8835;-1.1721;0.0000;4.0556;0.0000
8;0.0000;0.0000;0.0000;0.0000;0.0000
9;-0.7135;-0.2779;0.0000;-0.4356;0.0000
10;-1.1995;-0.5245;0.0000;-0.6750;0.0000
11;-0.7180;0.4207;0.0000;-1.1387;0.0000
12;-0.9877;-0.0198;0.0000;-0.9679;0.0000
13;-0.0336;0.0000;0.0000;-0.0336;0.0000
14;-0.0272;0.0000;0.0000;-0.0272;0.0000
15;-0.2736;0.0000;0.0000;-0.2736;0.0000
16;-0.0574;0.0000;0.0000;-0.0574;0.0000
17;0.0000;0.0000;0.0000;0.0000;0.0000
18;-0.6819;0.0000;0.0000;-0.6819;0.0000
19;0.0000;0.0000;0.0000;0.0000;0.0000
20;0.0002;0.0000;0.0000;0.0002;0.0000
21;-11.6211;8.8179;-19.9986;3.5292;-3.9696
22;0.0000;0.0000;0.0000;0.0000;0.0000

> <BIOSOLVEIT.HYDE_ESTIMATED_AFFINITY_LOWER_BOUNDARY [nM]>
496.879866

> <BIOSOLVEIT.HYDE_ESTIMATED_AFFINITY_UPPER_BOUNDARY [nM]>
49367.952475

> <BIOSOLVEIT.HYDE_LIGAND_EFFICIENCY>
0.337601

> <BIOSOLVEIT.HYDE_LIGAND_LIPOPHILIC_EFFICIENCY>
3.723752

> <BIOSOLVEIT.INTER_CLASH range: 0=green, 1=yellow, 2=red>
0

> <BIOSOLVEIT.INTRA_CLASH range: 0=green, 1=yellow, 2=red>
0

> <BIOSOLVEIT.LOGP>
1.5814

> <BIOSOLVEIT.MOLECULAR_WEIGHT>
349.428

> <BIOSOLVEIT.MOLECULE_CHECKSUM>
LTMwLjI4MTk7MC4zMzc2MDE=

> <BIOSOLVEIT.TORSION_QUALITY range: 0=green/not rotatable, 1=yellow, 2=red>
0

> <BIOSOLVEIT.TPSA>
107.36

> <cleaned_smiles (canonical SMILES)>
C[n]1cc(NS(=O)(=O)C2CS(=O)(=O)C2)c([n]1)OC1CCCC1

> <BIOSOLVEIT.OPTIBRIUM.2C9 pKi>
4.59016

> <BIOSOLVEIT.OPTIBRIUM.2D6 affinity category>
medium

> <BIOSOLVEIT.OPTIBRIUM.BBB category>
-

> <BIOSOLVEIT.OPTIBRIUM.BBB log([brain]:[blood])>
-0.731885

> <BIOSOLVEIT.OPTIBRIUM.hERG pIC50>
5.43097

> <BIOSOLVEIT.OPTIBRIUM.HIA category>
-

> <BIOSOLVEIT.OPTIBRIUM.logD>
0.398913

> <BIOSOLVEIT.OPTIBRIUM.logP>
0.398913

> <BIOSOLVEIT.OPTIBRIUM.logS @ pH7.4>
3.37856

> <BIOSOLVEIT.OPTIBRIUM.logS>
3.37856

> <BIOSOLVEIT.OPTIBRIUM.P-gp category>
no

> <BIOSOLVEIT.OPTIBRIUM.PPB90 category>
low

$$$$
no name_1_007
phSeeSAR  05142510573D 1   1.00000     0.00000     0
SeeSAR 14.1.2 pham.congdat
 42 44  0  0  0  0            999 V2000
    1.4152    3.7920    8.2051 S   0  0  0  0  0  0  0  0  0  0  0  0
    1.8012    5.0163    8.8549 O   0  0  0  0  0  0  0  0  0  0  0  0
    0.0013    3.6306    8.4288 O   0  0  0  0  0  0  0  0  0  0  0  0
    2.4126    2.4151    8.8314 C   0  0  0  0  0  0  0  0  0  0  0  0
    2.0795    1.1860    7.9952 C   0  0  1  0  0  0  0  0  0  0  0  0
    0.6612    0.6811    8.1992 C   0  0  0  0  0  0  0  0  0  0  0  0
   -0.0818    0.5171    7.2264 O   0  0  0  0  0  0  0  0  0  0  0  0
    0.2262    0.4198    9.4069 O   0  0  0  0  0  0  0  0  0  0  0  0
   -0.7141   -0.6241    9.6126 C   0  0  0  0  0  0  0  0  0  0  0  0
   -2.0971   -0.0269    9.8202 C   0  0  0  0  0  0  0  0  0  0  0  0
   -2.8840    0.4280    8.8744 N   0  0  0  0  0  0  0  0  0  0  0  0
   -4.0300    0.8782    9.4632 N   0  0  0  0  0  0  0  0  0  0  0  0
   -3.9289    0.7023   10.7402 N   0  0  0  0  0  0  0  0  0  0  0  0
   -2.7337    0.1328   11.0325 N   0  0  0  0  0  0  0  0  0  0  0  0
   -2.2220   -0.2293   12.3623 C   0  0  0  0  0  0  0  0  0  0  0  0
   -2.7580   -1.5955   12.7565 C   0  0  0  0  0  0  0  0  0  0  0  0
   -2.8685   -2.5913   11.7919 C   0  0  0  0  0  0  0  0  0  0  0  0
   -3.3603   -3.8393   12.1593 C   0  0  0  0  0  0  0  0  0  0  0  0
   -3.7365   -4.0889   13.4743 C   0  0  0  0  0  0  0  0  0  0  0  0
   -3.6227   -3.0866   14.4325 C   0  0  0  0  0  0  0  0  0  0  0  0
   -3.1321   -1.8352   14.0749 C   0  0  0  0  0  0  0  0  0  0  0  0
    2.3969    1.3674    6.5124 C   0  0  0  0  0  0  0  0  0  0  0  0
    1.6049    2.4752    5.8250 C   0  0  0  0  0  0  0  0  0  0  0  0
    1.8128    3.8543    6.4406 C   0  0  0  0  0  0  0  0  0  0  0  0
    2.1771    2.2319    9.8589 H   0  0  0  0  0  0  0  0  0  0  0  0
    3.4531    2.6473    8.7399 H   0  0  0  0  0  0  0  0  0  0  0  0
    2.7246    0.4066    8.3435 H   0  0  0  0  0  0  0  0  0  0  0  0
   -0.4362   -1.1892   10.4775 H   0  0  0  0  0  0  0  0  0  0  0  0
   -0.7276   -1.2658    8.7565 H   0  0  0  0  0  0  0  0  0  0  0  0
   -2.5415    0.4992   13.0779 H   0  0  0  0  0  0  0  0  0  0  0  0
   -1.1527   -0.2594   12.3370 H   0  0  0  0  0  0  0  0  0  0  0  0
   -2.5788   -2.3996   10.7798 H   0  0  0  0  0  0  0  0  0  0  0  0
   -3.4498   -4.6125   11.4250 H   0  0  0  0  0  0  0  0  0  0  0  0
   -4.1135   -5.0517   13.7494 H   0  0  0  0  0  0  0  0  0  0  0  0
   -3.9125   -3.2784   15.4445 H   0  0  0  0  0  0  0  0  0  0  0  0
   -3.0431   -1.0619   14.8089 H   0  0  0  0  0  0  0  0  0  0  0  0
    2.1866    0.4460    6.0108 H   0  0  0  0  0  0  0  0  0  0  0  0
    3.4384    1.5946    6.4194 H   0  0  0  0  0  0  0  0  0  0  0  0
    0.5644    2.2326    5.8847 H   0  0  0  0  0  0  0  0  0  0  0  0
    1.9034    2.5157    4.7983 H   0  0  0  0  0  0  0  0  0  0  0  0
    2.8332    4.1511    6.3149 H   0  0  0  0  0  0  0  0  0  0  0  0
    1.1733    4.5618    5.9554 H   0  0  0  0  0  0  0  0  0  0  0  0
  1  2  2  0  0  0  0
  1  3  2  0  0  0  0
  1  4  1  0  0  0  0
  1 24  1  0  0  0  0
  4  5  1  0  0  0  0
  5  6  1  0  0  0  0
  5 22  1  0  0  0  0
  6  7  2  0  0  0  0
  6  8  1  0  0  0  0
  8  9  1  0  0  0  0
  9 10  1  0  0  0  0
 10 11  2  0  0  0  0
 10 14  1  0  0  0  0
 11 12  1  0  0  0  0
 12 13  2  0  0  0  0
 13 14  1  0  0  0  0
 14 15  1  0  0  0  0
 15 16  1  0  0  0  0
 16 17  2  0  0  0  0
 16 21  1  0  0  0  0
 17 18  1  0  0  0  0
 18 19  2  0  0  0  0
 19 20  1  0  0  0  0
 20 21  2  0  0  0  0
 22 23  1  0  0  0  0
 23 24  1  0  0  0  0
  4 25  1  0  0  0  0
  4 26  1  0  0  0  0
  5 27  1  0  0  0  0
  9 28  1  0  0  0  0
  9 29  1  0  0  0  0
 15 30  1  0  0  0  0
 15 31  1  0  0  0  0
 17 32  1  0  0  0  0
 18 33  1  0  0  0  0
 19 34  1  0  0  0  0
 20 35  1  0  0  0  0
 21 36  1  0  0  0  0
 22 37  1  0  0  0  0
 22 38  1  0  0  0  0
 23 39  1  0  0  0  0
 23 40  1  0  0  0  0
 24 41  1  0  0  0  0
 24 42  1  0  0  0  0
M  END
> <BIOSOLVEIT.HYDE_ATOM_SCORES [kJ/mol]>
# Atom-ID; Total; Rec-Desolv; Rec-IA; Lig-Desolv; Lig-IA
1;0.0000;0.0000;0.0000;0.0000;0.0000
2;-2.0059;8.1795;-9.4014;3.0946;-3.8785
3;-0.2102;-0.3589;0.0000;0.1487;0.0000
4;0.0000;0.0000;0.0000;0.0000;0.0000
5;0.0000;0.0000;0.0000;0.0000;0.0000
6;0.0000;0.0000;0.0000;0.0000;0.0000
7;-12.5188;9.1932;-19.9981;8.6859;-10.3998
8;0.0000;0.0000;0.0000;0.0000;0.0000
9;-3.1475;-2.2744;0.0000;-0.8730;0.0000
10;-0.0881;0.0000;0.0000;-0.0881;0.0000
11;-11.2153;9.9204;-19.6664;6.8195;-8.2887
12;8.2665;7.4330;-0.7438;6.7202;-5.1429
13;-2.8073;7.3663;-8.4286;6.6837;-8.4286
14;-0.0635;0.0000;0.0000;-0.0635;0.0000
15;-2.1809;-1.1534;0.0000;-1.0276;0.0000
16;-0.0531;0.0000;0.0000;-0.0531;0.0000
17;-1.1966;0.0000;0.0000;-1.1966;0.0000
18;4.7986;6.1034;0.0000;-1.3048;0.0000
19;-0.8086;0.0910;0.0000;-0.8996;0.0000
20;-0.1839;0.0000;0.0000;-0.1839;0.0000
21;-0.6704;0.0000;0.0000;-0.6704;0.0000
22;0.0000;0.0000;0.0000;0.0000;0.0000
23;-2.7487;-1.7789;0.0000;-0.9698;0.0000
24;-0.2168;0.0000;0.0000;-0.2168;0.0000

> <BIOSOLVEIT.HYDE_ESTIMATED_AFFINITY_LOWER_BOUNDARY [nM]>
1662.885540

> <BIOSOLVEIT.HYDE_ESTIMATED_AFFINITY_UPPER_BOUNDARY [nM]>
165217.510138

> <BIOSOLVEIT.HYDE_LIGAND_EFFICIENCY>
0.278865

> <BIOSOLVEIT.HYDE_LIGAND_LIPOPHILIC_EFFICIENCY>
3.540541

> <BIOSOLVEIT.INTER_CLASH range: 0=green, 1=yellow, 2=red>
0

> <BIOSOLVEIT.INTRA_CLASH range: 0=green, 1=yellow, 2=red>
0

> <BIOSOLVEIT.LOGP>
1.24

> <BIOSOLVEIT.MOLECULAR_WEIGHT>
350.396

> <BIOSOLVEIT.MOLECULE_CHECKSUM>
LTI3LjI4NzQ7MC4yNzg4NjU=

> <BIOSOLVEIT.TORSION_QUALITY range: 0=green/not rotatable, 1=yellow, 2=red>
1

> <BIOSOLVEIT.TPSA>
104.04

> <cleaned_smiles (canonical SMILES)>
O=C(OCc1[n][n][n][n]1Cc1ccccc1)C1CS(=O)(=O)CCC1

$$$$
no name_1_002
phSeeSAR  05142510573D 1   1.00000     0.00000     0
SeeSAR 14.1.2 pham.congdat
 45 47  0  0  0  0            999 V2000
   -3.1026    0.7018    9.7917 S   0  0  0  0  0  0  0  0  0  0  0  0
   -4.2885    1.0373   10.5364 O   0  0  0  0  0  0  0  0  0  0  0  0
   -3.4648   -0.0837    8.6404 O   0  0  0  0  0  0  0  0  0  0  0  0
   -2.3615    2.0696    9.3049 N   0  5  0  0  0  0  0  0  0  0  0  0
   -1.6412    2.0919    8.0698 O   0  0  0  0  0  0  0  0  0  0  0  0
   -0.2549    2.2515    8.3330 C   0  0  1  0  0  0  0  0  0  0  0  0
    0.5060    1.0557    7.7843 C   0  0  0  0  0  0  0  0  0  0  0  0
   -0.0372    0.2979    6.9472 O   0  0  0  0  0  0  0  0  0  0  0  0
    1.6764    0.8276    8.1690 O   0  5  0  0  0  0  0  0  0  0  0  0
    0.2463    3.5243    7.6614 C   0  0  0  0  0  0  0  0  0  0  0  0
    1.6674    3.9580    7.8703 C   0  0  0  0  0  0  0  0  0  0  0  0
    1.2442    3.3918    6.5468 C   0  0  0  0  0  0  0  0  0  0  0  0
   -2.0011   -0.2331   10.8230 C   0  0  0  0  0  0  0  0  0  0  0  0
   -2.2927   -0.3805   12.1753 C   0  0  0  0  0  0  0  0  0  0  0  0
   -1.4387   -1.1105   12.9956 C   0  0  0  0  0  0  0  0  0  0  0  0
   -0.2976   -1.6857   12.4454 C   0  0  0  0  0  0  0  0  0  0  0  0
   -0.0023   -1.5411   11.0936 C   0  0  0  0  0  0  0  0  0  0  0  0
   -0.8592   -0.8103   10.2766 C   0  0  0  0  0  0  0  0  0  0  0  0
    0.6446   -2.4861   13.3297 C   0  0  0  0  0  0  0  0  0  0  0  0
    0.2238   -3.9469   13.3488 C   0  0  0  0  0  0  0  0  0  0  0  0
    1.1598   -4.7572   14.2309 C   0  0  0  0  0  0  0  0  0  0  0  0
    2.5827   -4.6330   13.7105 C   0  0  0  0  0  0  0  0  0  0  0  0
    3.0164   -3.1759   13.6913 C   0  0  0  0  0  0  0  0  0  0  0  0
    2.0693   -2.3756   12.8114 C   0  0  0  0  0  0  0  0  0  0  0  0
   -0.0980    2.3200    9.3892 H   0  0  0  0  0  0  0  0  0  0  0  0
   -0.4717    4.3106    7.5551 H   0  0  0  0  0  0  0  0  0  0  0  0
    2.3101    3.3932    8.5128 H   0  0  0  0  0  0  0  0  0  0  0  0
    1.9019    4.9985    7.9566 H   0  0  0  0  0  0  0  0  0  0  0  0
    1.1764    4.0284    5.6894 H   0  0  0  0  0  0  0  0  0  0  0  0
    1.5846    2.4231    6.2457 H   0  0  0  0  0  0  0  0  0  0  0  0
   -3.1740    0.0677   12.5845 H   0  0  0  0  0  0  0  0  0  0  0  0
   -1.6567   -1.2281   14.0365 H   0  0  0  0  0  0  0  0  0  0  0  0
    0.8789   -1.9894   10.6845 H   0  0  0  0  0  0  0  0  0  0  0  0
   -0.6416   -0.6930    9.2356 H   0  0  0  0  0  0  0  0  0  0  0  0
    0.6038   -2.0974   14.3259 H   0  0  0  0  0  0  0  0  0  0  0  0
    0.2542   -4.3355   12.3523 H   0  0  0  0  0  0  0  0  0  0  0  0
   -0.7729   -4.0217   13.7305 H   0  0  0  0  0  0  0  0  0  0  0  0
    0.8632   -5.7851   14.2157 H   0  0  0  0  0  0  0  0  0  0  0  0
    1.1136   -4.3874   15.2340 H   0  0  0  0  0  0  0  0  0  0  0  0
    2.6302   -5.0278   12.7171 H   0  0  0  0  0  0  0  0  0  0  0  0
    3.2402   -5.1879   14.3467 H   0  0  0  0  0  0  0  0  0  0  0  0
    4.0105   -3.1050   13.3017 H   0  0  0  0  0  0  0  0  0  0  0  0
    2.9947   -2.7843   14.6868 H   0  0  0  0  0  0  0  0  0  0  0  0
    2.3675   -1.3479   12.8158 H   0  0  0  0  0  0  0  0  0  0  0  0
    2.1113   -2.7549   11.8117 H   0  0  0  0  0  0  0  0  0  0  0  0
  1  2  2  0  0  0  0
  1  3  2  0  0  0  0
  1  4  1  0  0  0  0
  1 13  1  0  0  0  0
  4  5  1  0  0  0  0
  5  6  1  0  0  0  0
  6  7  1  0  0  0  0
  6 10  1  0  0  0  0
  7  8  2  0  0  0  0
  7  9  1  0  0  0  0
 10 11  1  0  0  0  0
 10 12  1  0  0  0  0
 11 12  1  0  0  0  0
 13 14  2  0  0  0  0
 13 18  1  0  0  0  0
 14 15  1  0  0  0  0
 15 16  2  0  0  0  0
 16 17  1  0  0  0  0
 16 19  1  0  0  0  0
 17 18  2  0  0  0  0
 19 20  1  0  0  0  0
 19 24  1  0  0  0  0
 20 21  1  0  0  0  0
 21 22  1  0  0  0  0
 22 23  1  0  0  0  0
 23 24  1  0  0  0  0
 24 44  1  0  0  0  0
  6 25  1  0  0  0  0
 24 45  1  0  0  0  0
 10 26  1  0  0  0  0
 11 27  1  0  0  0  0
 11 28  1  0  0  0  0
 12 29  1  0  0  0  0
 12 30  1  0  0  0  0
 14 31  1  0  0  0  0
 15 32  1  0  0  0  0
 17 33  1  0  0  0  0
 18 34  1  0  0  0  0
 19 35  1  0  0  0  0
 20 36  1  0  0  0  0
 20 37  1  0  0  0  0
 21 38  1  0  0  0  0
 21 39  1  0  0  0  0
 22 40  1  0  0  0  0
 22 41  1  0  0  0  0
 23 42  1  0  0  0  0
 23 43  1  0  0  0  0
M  CHG  2   4  -1   9  -1
M  END
> <BIOSOLVEIT.HYDE_ATOM_SCORES [kJ/mol]>
# Atom-ID; Total; Rec-Desolv; Rec-IA; Lig-Desolv; Lig-IA
1;-0.1683;0.0000;0.0000;-0.1683;0.0000
2;-4.1485;13.4781;-16.4487;2.7915;-3.9694
3;-2.1823;3.9649;-6.1017;2.9881;-3.0336
4;-3.4194;8.9700;-10.5417;12.4351;-14.2828
5;-10.5188;9.3571;-19.4892;8.9904;-9.3772
6;-0.1978;0.0000;0.0000;-0.1978;0.0000
7;0.0000;0.0000;0.0000;0.0000;0.0000
8;-11.9828;9.5438;-19.9986;3.6083;-5.1364
9;0.0000;0.0000;0.0000;0.0000;0.0000
10;0.2951;1.0462;0.0000;-0.7510;0.0000
11;-0.2209;0.0000;0.0000;-0.2209;0.0000
12;-2.1893;-1.3151;0.0000;-0.8742;0.0000
13;0.0000;0.0000;0.0000;0.0000;0.0000
14;-2.4369;-1.1211;0.0000;-1.3158;0.0000
15;0.0000;0.0000;0.0000;0.0000;0.0000
16;0.0000;0.0000;0.0000;0.0000;0.0000
17;-0.1003;0.0000;0.0000;-0.1003;0.0000
18;-0.7374;0.0000;0.0000;-0.7374;0.0000
19;0.0000;0.0000;0.0000;0.0000;0.0000
20;-0.8564;-0.5091;0.0000;-0.3474;0.0000
21;-1.0338;-0.4066;0.0000;-0.6271;0.0000
22;-0.5538;0.4309;0.0000;-0.9847;0.0000
23;-0.1968;0.0000;0.0000;-0.1968;0.0000
24;0.0000;0.0000;0.0000;0.0000;0.0000

> <BIOSOLVEIT.HYDE_ESTIMATED_AFFINITY_LOWER_BOUNDARY [nM]>
5.639912

> <BIOSOLVEIT.HYDE_ESTIMATED_AFFINITY_UPPER_BOUNDARY [nM]>
560.358627

> <BIOSOLVEIT.HYDE_LIGAND_EFFICIENCY>
0.422924

> <BIOSOLVEIT.HYDE_LIGAND_LIPOPHILIC_EFFICIENCY>
4.342731

> <BIOSOLVEIT.INTER_CLASH range: 0=green, 1=yellow, 2=red>
0

> <BIOSOLVEIT.INTRA_CLASH range: 0=green, 1=yellow, 2=red>
0

> <BIOSOLVEIT.LOGP>
2.9074

> <BIOSOLVEIT.MOLECULAR_WEIGHT>
351.42

> <BIOSOLVEIT.MOLECULE_CHECKSUM>
LTQxLjM4Mzg7MC40MjI5MjQ=

> <BIOSOLVEIT.TORSION_QUALITY range: 0=green/not rotatable, 1=yellow, 2=red>
1

> <BIOSOLVEIT.TPSA>
97.6

> <cleaned_smiles (canonical SMILES)>
OC(=O)C(ONS(=O)(=O)c1ccc(cc1)C1CCCCC1)C1CC1

> <BIOSOLVEIT.OPTIBRIUM.2C9 pKi>
4.64513

> <BIOSOLVEIT.OPTIBRIUM.2D6 affinity category>
very high

> <BIOSOLVEIT.OPTIBRIUM.BBB category>
-

> <BIOSOLVEIT.OPTIBRIUM.BBB log([brain]:[blood])>
-1.21272

> <BIOSOLVEIT.OPTIBRIUM.hERG pIC50>
4.58996

> <BIOSOLVEIT.OPTIBRIUM.HIA category>
+

> <BIOSOLVEIT.OPTIBRIUM.logD>
0.477533

> <BIOSOLVEIT.OPTIBRIUM.logP>
3.48331

> <BIOSOLVEIT.OPTIBRIUM.logS @ pH7.4>
2.78022

> <BIOSOLVEIT.OPTIBRIUM.logS>
1.80318

> <BIOSOLVEIT.OPTIBRIUM.P-gp category>
no

> <BIOSOLVEIT.OPTIBRIUM.PPB90 category>
high

$$$$
no name_1_005
phSeeSAR  05142510573D 1   1.00000     0.00000     0
SeeSAR 14.1.2 pham.congdat
 45 47  0  0  0  0            999 V2000
   -2.9694    0.8492    9.7925 S   0  0  0  0  0  0  0  0  0  0  0  0
   -4.1863    1.4128   10.3172 O   0  0  0  0  0  0  0  0  0  0  0  0
   -3.1138    0.6292    8.3768 O   0  0  0  0  0  0  0  0  0  0  0  0
   -1.7346    1.8792   10.0590 N   0  5  0  0  0  0  0  0  0  0  0  0
   -0.3474    1.3984    9.9857 C   0  0  0  0  0  0  0  0  0  0  0  0
    0.1782    1.5799    8.5695 C   0  0  2  0  0  0  0  0  0  0  0  0
   -0.2201    0.4846    7.7517 O   0  0  0  0  0  0  0  0  0  0  0  0
    0.5221   -0.7140    7.9545 C   0  0  0  0  0  0  0  0  0  0  0  0
    2.0324   -0.5122    7.9960 C   0  0  0  0  0  0  0  0  0  0  0  0
    2.4576    0.6216    8.8314 N   0  3  2  0  0  0  0  0  0  0  0  0
    2.4246    0.2764   10.2607 C   0  0  0  0  0  0  0  0  0  0  0  0
    3.2431   -0.9840   10.4970 C   0  0  0  0  0  0  0  0  0  0  0  0
    4.5491   -1.1906   10.0947 N   0  0  0  0  0  0  0  0  0  0  0  0
    4.8989   -2.4414   10.5065 N   0  0  0  0  0  0  0  0  0  0  0  0
    3.8858   -2.9804   11.1193 N   0  0  0  0  0  0  0  0  0  0  0  0
    2.8188   -2.1054   11.1366 C   0  0  0  0  0  0  0  0  0  0  0  0
    1.4816   -2.3358   11.7340 C   0  0  0  0  0  0  0  0  0  0  0  0
    1.0672   -1.5527   12.8058 C   0  0  0  0  0  0  0  0  0  0  0  0
   -0.1883   -1.7744   13.3619 C   0  0  0  0  0  0  0  0  0  0  0  0
   -1.0189   -2.7663   12.8527 C   0  0  0  0  0  0  0  0  0  0  0  0
   -0.5957   -3.5452   11.7803 C   0  0  0  0  0  0  0  0  0  0  0  0
    0.6581   -3.3310   11.2175 C   0  0  0  0  0  0  0  0  0  0  0  0
    1.6819    1.8205    8.4629 C   0  0  0  0  0  0  0  0  0  0  0  0
   -2.6297   -0.7261   10.6164 C   0  0  0  0  0  0  0  0  0  0  0  0
   -0.3150    0.3615   10.2479 H   0  0  0  0  0  0  0  0  0  0  0  0
    0.2603    1.9575   10.6661 H   0  0  0  0  0  0  0  0  0  0  0  0
   -0.3014    2.4503    8.1727 H   0  0  0  0  0  0  0  0  0  0  0  0
    0.2951   -1.3887    7.1558 H   0  0  0  0  0  0  0  0  0  0  0  0
    0.2152   -1.1457    8.8842 H   0  0  0  0  0  0  0  0  0  0  0  0
    2.3777   -0.3436    6.9974 H   0  0  0  0  0  0  0  0  0  0  0  0
    2.4812   -1.4031    8.3829 H   0  0  0  0  0  0  0  0  0  0  0  0
    1.4125    0.1064   10.5632 H   0  0  0  0  0  0  0  0  0  0  0  0
    2.8370    1.0818   10.8317 H   0  0  0  0  0  0  0  0  0  0  0  0
    5.1274   -0.5448    9.5962 H   0  0  0  0  0  0  0  0  0  0  0  0
    1.7061   -0.7890   13.1977 H   0  0  0  0  0  0  0  0  0  0  0  0
   -0.5170   -1.1777   14.1870 H   0  0  0  0  0  0  0  0  0  0  0  0
   -1.9835   -2.9307   13.2855 H   0  0  0  0  0  0  0  0  0  0  0  0
   -1.2347   -4.3088   11.3886 H   0  0  0  0  0  0  0  0  0  0  0  0
    0.9871   -3.9278   10.3926 H   0  0  0  0  0  0  0  0  0  0  0  0
    1.9515    2.6219    9.1185 H   0  0  0  0  0  0  0  0  0  0  0  0
    1.9187    2.0894    7.4547 H   0  0  0  0  0  0  0  0  0  0  0  0
   -1.7255   -1.1448   10.2264 H   0  0  0  0  0  0  0  0  0  0  0  0
   -2.5224   -0.5626   11.6684 H   0  0  0  0  0  0  0  0  0  0  0  0
   -3.4404   -1.4022   10.4414 H   0  0  0  0  0  0  0  0  0  0  0  0
    3.4120    0.8108    8.6003 H   0  0  0  0  0  0  0  0  0  0  0  0
  1  2  2  0  0  0  0
  1  3  2  0  0  0  0
  1  4  1  0  0  0  0
  1 24  1  0  0  0  0
  4  5  1  0  0  0  0
  5  6  1  0  0  0  0
  6  7  1  0  0  0  0
  6 23  1  0  0  0  0
  7  8  1  0  0  0  0
  8  9  1  0  0  0  0
  9 10  1  0  0  0  0
 10 11  1  0  0  0  0
 10 23  1  0  0  0  0
 11 12  1  0  0  0  0
 12 13  1  0  0  0  0
 12 16  2  0  0  0  0
 13 14  1  0  0  0  0
 14 15  2  0  0  0  0
 15 16  1  0  0  0  0
 16 17  1  0  0  0  0
 17 18  2  0  0  0  0
 17 22  1  0  0  0  0
 18 19  1  0  0  0  0
 19 20  2  0  0  0  0
 20 21  1  0  0  0  0
 21 22  2  0  0  0  0
 10 45  1  0  0  0  0
  5 25  1  0  0  0  0
  5 26  1  0  0  0  0
  6 27  1  0  0  0  0
  8 28  1  0  0  0  0
  8 29  1  0  0  0  0
  9 30  1  0  0  0  0
  9 31  1  0  0  0  0
 11 32  1  0  0  0  0
 11 33  1  0  0  0  0
 13 34  1  0  0  0  0
 18 35  1  0  0  0  0
 19 36  1  0  0  0  0
 20 37  1  0  0  0  0
 21 38  1  0  0  0  0
 22 39  1  0  0  0  0
 23 40  1  0  0  0  0
 23 41  1  0  0  0  0
 24 42  1  0  0  0  0
 24 43  1  0  0  0  0
 24 44  1  0  0  0  0
M  CHG  2   4  -1  10   1
M  END
> <BIOSOLVEIT.HYDE_ATOM_SCORES [kJ/mol]>
# Atom-ID; Total; Rec-Desolv; Rec-IA; Lig-Desolv; Lig-IA
1;-0.1046;0.0000;0.0000;-0.1046;0.0000
2;-5.4802;24.1174;-27.3650;2.8485;-5.0810
3;-10.5869;8.8610;-18.8567;3.1517;-3.7429
4;-3.5312;6.7165;-8.4285;10.3709;-12.1901
5;-0.3804;0.0000;0.0000;-0.3804;0.0000
6;-0.2095;0.0000;0.0000;-0.2095;0.0000
7;-10.4861;9.5474;-19.5274;8.8894;-9.3956
8;-3.7568;-2.6748;0.0000;-1.0820;0.0000
9;0.0000;0.0000;0.0000;0.0000;0.0000
10;0.0000;0.0000;0.0000;0.0000;0.0000
11;0.0000;0.0000;0.0000;0.0000;0.0000
12;0.0000;0.0000;0.0000;0.0000;0.0000
13;0.0000;0.0000;0.0000;0.0000;0.0000
14;4.1559;-0.5052;0.0000;4.6611;0.0000
15;-1.8177;7.0406;-7.9450;7.0316;-7.9450
16;0.0000;0.0000;0.0000;0.0000;0.0000
17;0.0000;0.0000;0.0000;0.0000;0.0000
18;0.0000;0.0000;0.0000;0.0000;0.0000
19;0.0000;0.0000;0.0000;0.0000;0.0000
20;0.0000;0.0000;0.0000;0.0000;0.0000
21;0.0638;1.0686;0.0000;-1.0048;0.0000
22;-0.4144;-0.0293;0.0000;-0.3851;0.0000
23;-0.0336;0.0000;0.0000;-0.0336;0.0000
24;-2.1688;-0.0213;0.0000;-2.1476;0.0000

> <BIOSOLVEIT.HYDE_ESTIMATED_AFFINITY_LOWER_BOUNDARY [nM]>
58.210782

> <BIOSOLVEIT.HYDE_ESTIMATED_AFFINITY_UPPER_BOUNDARY [nM]>
5783.585401

> <BIOSOLVEIT.HYDE_LIGAND_EFFICIENCY>
0.363790

> <BIOSOLVEIT.HYDE_LIGAND_LIPOPHILIC_EFFICIENCY>
5.997100

> <BIOSOLVEIT.INTER_CLASH range: 0=green, 1=yellow, 2=red>
0

> <BIOSOLVEIT.INTRA_CLASH range: 0=green, 1=yellow, 2=red>
1

> <BIOSOLVEIT.LOGP>
0.2393

> <BIOSOLVEIT.MOLECULAR_WEIGHT>
351.428

> <BIOSOLVEIT.MOLECULE_CHECKSUM>
LTM1LjU5NzQ7MC4zNjM3OQ==

> <BIOSOLVEIT.TORSION_QUALITY range: 0=green/not rotatable, 1=yellow, 2=red>
0

> <BIOSOLVEIT.TPSA>
103.48

> <cleaned_smiles (canonical SMILES)>
CS(=O)(=O)NCC1CN(Cc2[nH][n][n]c2-c2ccccc2)CCO1

$$$$
no name_1_008
phSeeSAR  05142510573D 1   1.00000     0.00000     0
SeeSAR 14.1.2 pham.congdat
 47 49  0  0  0  0            999 V2000
   -2.4666   -0.0572   10.2808 S   0  0  0  0  0  0  0  0  0  0  0  0
   -2.0308    0.2952    8.9550 O   0  0  0  0  0  0  0  0  0  0  0  0
   -3.7777    0.4489   10.5858 O   0  0  0  0  0  0  0  0  0  0  0  0
   -2.3308   -1.8255   10.5999 C   0  0  0  0  0  0  0  0  0  0  0  0
   -2.2967   -1.8196   12.1152 C   0  0  1  0  0  0  0  0  0  0  0  0
   -1.8516   -3.2162   12.5275 C   0  0  0  0  0  0  0  0  0  0  0  0
   -2.9041   -4.1856   12.1902 N   0  3  2  0  0  0  0  0  0  0  0  0
   -4.2137   -3.6413   12.5771 C   0  0  0  0  0  0  0  0  0  0  0  0
   -4.4828   -3.9593   14.0394 C   0  0  0  0  0  0  0  0  0  0  0  0
   -3.6507   -3.6898   15.0518 O   0  0  0  0  0  0  0  0  0  0  0  0
   -4.2387   -4.1175   16.1686 C   0  0  0  0  0  0  0  0  0  0  0  0
   -3.6657   -4.0201   17.5362 C   0  0  0  0  0  0  0  0  0  0  0  0
   -4.4217   -4.4305   18.6296 C   0  0  0  0  0  0  0  0  0  0  0  0
   -3.8709   -4.3339   19.9032 C   0  0  0  0  0  0  0  0  0  0  0  0
   -4.6193   -4.7419   20.9943 O   0  0  0  0  0  0  0  0  0  0  0  0
   -4.0832   -4.6309   22.3045 C   0  0  0  0  0  0  0  0  0  0  0  0
   -2.5858   -3.8364   20.0929 C   0  0  0  0  0  0  0  0  0  0  0  0
   -1.8482   -3.4316   18.9855 C   0  0  0  0  0  0  0  0  0  0  0  0
   -2.3787   -3.5195   17.7028 C   0  0  0  0  0  0  0  0  0  0  0  0
   -5.4526   -4.6536   15.8552 C   0  0  0  0  0  0  0  0  0  0  0  0
   -5.5814   -4.5423   14.4802 N   0  0  0  0  0  0  0  0  0  0  0  0
   -2.6627   -5.4424   12.9136 C   0  0  0  0  0  0  0  0  0  0  0  0
   -1.2455   -0.7984   12.5260 C   0  0  0  0  0  0  0  0  0  0  0  0
   -1.2613    0.3675   11.5571 C   0  0  0  0  0  0  0  0  0  0  0  0
   -1.4343   -2.2360   10.1844 H   0  0  0  0  0  0  0  0  0  0  0  0
   -3.1765   -2.3626   10.2241 H   0  0  0  0  0  0  0  0  0  0  0  0
   -3.2551   -1.5790   12.5256 H   0  0  0  0  0  0  0  0  0  0  0  0
   -1.6726   -3.2367   13.5822 H   0  0  0  0  0  0  0  0  0  0  0  0
   -0.9517   -3.4717   12.0081 H   0  0  0  0  0  0  0  0  0  0  0  0
   -4.9765   -4.0820   11.9700 H   0  0  0  0  0  0  0  0  0  0  0  0
   -4.2146   -2.5805   12.4368 H   0  0  0  0  0  0  0  0  0  0  0  0
   -5.4111   -4.8144   18.4931 H   0  0  0  0  0  0  0  0  0  0  0  0
   -4.7980   -4.9918   23.0142 H   0  0  0  0  0  0  0  0  0  0  0  0
   -3.1873   -5.2117   22.3737 H   0  0  0  0  0  0  0  0  0  0  0  0
   -3.8603   -3.6052   22.5129 H   0  0  0  0  0  0  0  0  0  0  0  0
   -2.1708   -3.7661   21.0767 H   0  0  0  0  0  0  0  0  0  0  0  0
   -0.8590   -3.0472   19.1223 H   0  0  0  0  0  0  0  0  0  0  0  0
   -1.8046   -3.2065   16.8558 H   0  0  0  0  0  0  0  0  0  0  0  0
   -6.1631   -5.0757   16.5349 H   0  0  0  0  0  0  0  0  0  0  0  0
   -3.4288   -6.1480   12.6681 H   0  0  0  0  0  0  0  0  0  0  0  0
   -1.7095   -5.8385   12.6321 H   0  0  0  0  0  0  0  0  0  0  0  0
   -2.6743   -5.2555   13.9671 H   0  0  0  0  0  0  0  0  0  0  0  0
   -0.2792   -1.2578   12.5142 H   0  0  0  0  0  0  0  0  0  0  0  0
   -1.4599   -0.4441   13.5127 H   0  0  0  0  0  0  0  0  0  0  0  0
   -1.5546    1.2648   12.0608 H   0  0  0  0  0  0  0  0  0  0  0  0
   -0.2927    0.5024   11.1229 H   0  0  0  0  0  0  0  0  0  0  0  0
   -2.8933   -4.3602   11.2057 H   0  0  0  0  0  0  0  0  0  0  0  0
  1  2  2  0  0  0  0
  1  3  2  0  0  0  0
  1  4  1  0  0  0  0
  1 24  1  0  0  0  0
  4  5  1  0  0  0  0
  5  6  1  0  0  0  0
  5 23  1  0  0  0  0
  6  7  1  0  0  0  0
  7  8  1  0  0  0  0
  7 22  1  0  0  0  0
  8  9  1  0  0  0  0
  9 10  1  0  0  0  0
  9 21  2  0  0  0  0
 10 11  1  0  0  0  0
 11 12  1  0  0  0  0
 11 20  2  0  0  0  0
 12 13  1  0  0  0  0
 12 19  2  0  0  0  0
 13 14  2  0  0  0  0
 14 15  1  0  0  0  0
 14 17  1  0  0  0  0
 15 16  1  0  0  0  0
 17 18  2  0  0  0  0
 18 19  1  0  0  0  0
 20 21  1  0  0  0  0
 23 24  1  0  0  0  0
  4 25  1  0  0  0  0
  4 26  1  0  0  0  0
  5 27  1  0  0  0  0
  6 28  1  0  0  0  0
  6 29  1  0  0  0  0
  8 30  1  0  0  0  0
  8 31  1  0  0  0  0
 13 32  1  0  0  0  0
 16 33  1  0  0  0  0
 16 34  1  0  0  0  0
 16 35  1  0  0  0  0
 17 36  1  0  0  0  0
 18 37  1  0  0  0  0
 19 38  1  0  0  0  0
 20 39  1  0  0  0  0
 22 40  1  0  0  0  0
 22 41  1  0  0  0  0
 22 42  1  0  0  0  0
 23 43  1  0  0  0  0
 23 44  1  0  0  0  0
 24 45  1  0  0  0  0
 24 46  1  0  0  0  0
  7 47  1  0  0  0  0
M  CHG  1   7   1
M  END
> <BIOSOLVEIT.HYDE_ATOM_SCORES [kJ/mol]>
# Atom-ID; Total; Rec-Desolv; Rec-IA; Lig-Desolv; Lig-IA
1;-0.0203;0.0000;0.0000;-0.0203;0.0000
2;-10.4057;10.0000;-19.3544;2.7904;-3.8417
3;-5.0917;13.7141;-16.8547;2.8121;-4.7632
4;-3.2571;-1.6222;0.0000;-1.6349;0.0000
5;-0.1274;0.0000;0.0000;-0.1274;0.0000
6;-0.0603;0.0000;0.0000;-0.0603;0.0000
7;-3.3492;7.9802;-9.5690;10.3626;-12.1230
8;0.7099;2.9863;0.0000;-2.2763;0.0000
9;-0.1205;0.0000;0.0000;-0.1205;0.0000
10;0.0000;0.0000;0.0000;0.0000;0.0000
11;-1.6714;-1.3555;0.0000;-0.3159;0.0000
12;-0.8812;-0.6163;0.0000;-0.2649;0.0000
13;-1.1210;-0.4897;0.0000;-0.6313;0.0000
14;-0.0745;0.0000;0.0000;-0.0745;0.0000
15;-2.3625;8.0449;-9.6221;4.3508;-5.1362
16;0.2396;0.5615;0.0000;-0.3219;0.0000
17;0.0000;0.0000;0.0000;0.0000;0.0000
18;0.0000;0.0000;0.0000;0.0000;0.0000
19;-0.0687;0.0000;0.0000;-0.0687;0.0000
20;-2.6376;-1.5136;0.0000;-1.1240;0.0000
21;-3.2584;6.7447;-8.4285;6.8538;-8.4285
22;0.8167;2.7004;0.0000;-1.8837;0.0000
23;-0.1720;0.0000;0.0000;-0.1720;0.0000
24;-1.2548;-0.3995;0.0000;-0.8554;0.0000

> <BIOSOLVEIT.HYDE_ESTIMATED_AFFINITY_LOWER_BOUNDARY [nM]>
83.069058

> <BIOSOLVEIT.HYDE_ESTIMATED_AFFINITY_UPPER_BOUNDARY [nM]>
8253.402054

> <BIOSOLVEIT.HYDE_LIGAND_EFFICIENCY>
0.354781

> <BIOSOLVEIT.HYDE_LIGAND_LIPOPHILIC_EFFICIENCY>
4.631764

> <BIOSOLVEIT.INTER_CLASH range: 0=green, 1=yellow, 2=red>
0

> <BIOSOLVEIT.INTRA_CLASH range: 0=green, 1=yellow, 2=red>
0

> <BIOSOLVEIT.LOGP>
1.4502

> <BIOSOLVEIT.MOLECULAR_WEIGHT>
351.444

> <BIOSOLVEIT.MOLECULE_CHECKSUM>
LTM0LjcxNTk7MC4zNTQ3ODE=

> <BIOSOLVEIT.TORSION_QUALITY range: 0=green/not rotatable, 1=yellow, 2=red>
0

> <BIOSOLVEIT.TPSA>
73.84

> <cleaned_smiles (canonical SMILES)>
COc1cc(ccc1)-c1c[n]c(CN(C)CC2CS(=O)(=O)CC2)o1

$$$$
no name_1_008
phSeeSAR  05142510573D 1   1.00000     0.00000     0
SeeSAR 14.1.2 pham.congdat
 44 46  0  0  0  0            999 V2000
   -2.8867    0.9342    9.7608 S   0  0  0  0  0  0  0  0  0  0  0  0
   -4.0949    1.4778   10.3253 O   0  0  0  0  0  0  0  0  0  0  0  0
   -3.1122    0.5959    8.3795 O   0  0  0  0  0  0  0  0  0  0  0  0
   -1.6941    2.0409    9.8616 N   0  0  0  0  0  0  0  0  0  0  0  0
   -1.3376    2.6806    8.6025 C   0  0  0  0  0  0  0  0  0  0  0  0
    0.1033    2.6630    9.0939 C   0  0  0  0  0  0  0  0  0  0  0  0
    1.0870    2.3073    7.9873 C   0  0  0  0  0  0  0  0  0  0  0  0
    1.0785    0.5163    7.7252 S   0  0  0  0  0  0  0  0  0  0  0  0
    2.4903   -0.0014    8.6687 C   0  0  0  0  0  0  0  0  0  0  0  0
    3.4121    0.8795    9.0158 N   0  0  0  0  0  0  0  0  0  0  0  0
    4.5309    0.5088    9.7550 C   0  0  0  0  0  0  0  0  0  0  0  0
    5.4939    1.4358   10.1166 O   0  0  0  0  0  0  0  0  0  0  0  0
    4.7105   -0.7913   10.1475 C   0  0  0  0  0  0  0  0  0  0  0  0
    3.7110   -1.7577    9.7737 C   0  0  0  0  0  0  0  0  0  0  0  0
    3.8550   -2.9353   10.1183 O   0  0  0  0  0  0  0  0  0  0  0  0
    2.6101   -1.3379    9.0344 N   0  0  0  0  0  0  0  0  0  0  0  0
    1.5887   -2.3246    8.6525 C   0  0  0  0  0  0  0  0  0  0  0  0
    2.2539   -3.4029    7.8173 C   0  0  0  0  0  0  0  0  0  0  0  0
    1.4658   -4.6530    8.1553 C   0  0  0  0  0  0  0  0  0  0  0  0
    1.4027   -4.5172    9.6691 C   0  0  0  0  0  0  0  0  0  0  0  0
    1.0448   -3.0582    9.8691 C   0  0  0  0  0  0  0  0  0  0  0  0
   -0.3420    1.4747    9.9074 C   0  0  0  0  0  0  0  0  0  0  0  0
   -2.4090   -0.5526   10.6760 C   0  0  0  0  0  0  0  0  0  0  0  0
   -1.7516    3.6574    8.4631 H   0  0  0  0  0  0  0  0  0  0  0  0
   -1.5211    2.0877    7.7309 H   0  0  0  0  0  0  0  0  0  0  0  0
    0.3822    3.5168    9.6753 H   0  0  0  0  0  0  0  0  0  0  0  0
    2.0701    2.6219    8.2693 H   0  0  0  0  0  0  0  0  0  0  0  0
    0.8002    2.8015    7.0827 H   0  0  0  0  0  0  0  0  0  0  0  0
    6.2904    1.1480   10.6483 H   0  0  0  0  0  0  0  0  0  0  0  0
    5.5696   -1.0804   10.7159 H   0  0  0  0  0  0  0  0  0  0  0  0
    0.7961   -1.8573    8.1062 H   0  0  0  0  0  0  0  0  0  0  0  0
    3.2830   -3.5153    8.0879 H   0  0  0  0  0  0  0  0  0  0  0  0
    2.1821   -3.1766    6.7739 H   0  0  0  0  0  0  0  0  0  0  0  0
    1.9816   -5.5415    7.8566 H   0  0  0  0  0  0  0  0  0  0  0  0
    0.4913   -4.6407    7.7137 H   0  0  0  0  0  0  0  0  0  0  0  0
    2.3484   -4.7452   10.1148 H   0  0  0  0  0  0  0  0  0  0  0  0
    0.6506   -5.1571   10.0810 H   0  0  0  0  0  0  0  0  0  0  0  0
   -0.0169   -2.9406    9.9306 H   0  0  0  0  0  0  0  0  0  0  0  0
    1.4976   -2.6832   10.7631 H   0  0  0  0  0  0  0  0  0  0  0  0
   -0.2355    0.5305    9.4154 H   0  0  0  0  0  0  0  0  0  0  0  0
    0.0860    1.4171   10.8864 H   0  0  0  0  0  0  0  0  0  0  0  0
   -1.5113   -0.9565   10.2567 H   0  0  0  0  0  0  0  0  0  0  0  0
   -2.2415   -0.3011   11.7025 H   0  0  0  0  0  0  0  0  0  0  0  0
   -3.1919   -1.2790   10.6100 H   0  0  0  0  0  0  0  0  0  0  0  0
  1  2  2  0  0  0  0
  1  3  2  0  0  0  0
  1  4  1  0  0  0  0
  1 23  1  0  0  0  0
  4  5  1  0  0  0  0
  4 22  1  0  0  0  0
  5  6  1  0  0  0  0
  6  7  1  0  0  0  0
  6 22  1  0  0  0  0
  7  8  1  0  0  0  0
  8  9  1  0  0  0  0
  9 10  2  0  0  0  0
  9 16  1  0  0  0  0
 10 11  1  0  0  0  0
 11 12  1  0  0  0  0
 11 13  2  0  0  0  0
 13 14  1  0  0  0  0
 14 15  2  0  0  0  0
 14 16  1  0  0  0  0
 16 17  1  0  0  0  0
 17 18  1  0  0  0  0
 17 21  1  0  0  0  0
 18 19  1  0  0  0  0
 19 20  1  0  0  0  0
 20 21  1  0  0  0  0
  5 24  1  0  0  0  0
  5 25  1  0  0  0  0
  6 26  1  0  0  0  0
  7 27  1  0  0  0  0
  7 28  1  0  0  0  0
 12 29  1  0  0  0  0
 13 30  1  0  0  0  0
 17 31  1  0  0  0  0
 18 32  1  0  0  0  0
 18 33  1  0  0  0  0
 19 34  1  0  0  0  0
 19 35  1  0  0  0  0
 20 36  1  0  0  0  0
 20 37  1  0  0  0  0
 21 38  1  0  0  0  0
 21 39  1  0  0  0  0
 22 40  1  0  0  0  0
 22 41  1  0  0  0  0
 23 42  1  0  0  0  0
 23 43  1  0  0  0  0
 23 44  1  0  0  0  0
M  END
> <BIOSOLVEIT.HYDE_ATOM_SCORES [kJ/mol]>
# Atom-ID; Total; Rec-Desolv; Rec-IA; Lig-Desolv; Lig-IA
1;-0.0330;0.0000;0.0000;-0.0330;0.0000
2;-4.8683;24.9169;-27.4370;2.7354;-5.0836
3;-0.5572;18.8073;-18.5930;2.9192;-3.6906
4;-4.0196;6.2372;-8.4288;10.3626;-12.1906
5;-3.5397;-1.8114;0.0000;-1.7282;0.0000
6;0.2596;0.5784;0.0000;-0.3188;0.0000
7;-0.4277;-0.1865;0.0000;-0.2412;0.0000
8;0.2055;0.0000;0.0000;0.2055;0.0000
9;0.0000;0.0000;0.0000;0.0000;0.0000
10;0.0000;0.0000;0.0000;0.0000;0.0000
11;0.0000;0.0000;0.0000;0.0000;0.0000
12;0.0000;0.0000;0.0000;0.0000;0.0000
13;-0.0684;0.0000;0.0000;-0.0684;0.0000
14;0.0000;0.0000;0.0000;0.0000;0.0000
15;-3.7288;6.3958;-8.4284;8.7035;-10.3997
16;0.0000;0.0000;0.0000;0.0000;0.0000
17;-0.3879;0.0000;0.0000;-0.3879;0.0000
18;-2.4061;-1.5915;0.0000;-0.8146;0.0000
19;-3.9392;-1.7195;0.0000;-2.2196;0.0000
20;-2.0454;-0.7830;0.0000;-1.2625;0.0000
21;-4.1823;-3.5895;0.0000;-0.5928;0.0000
22;-0.1639;0.0000;0.0000;-0.1639;0.0000
23;-2.1746;0.0000;0.0000;-2.1746;0.0000

> <BIOSOLVEIT.HYDE_ESTIMATED_AFFINITY_LOWER_BOUNDARY [nM]>
171.159303

> <BIOSOLVEIT.HYDE_ESTIMATED_AFFINITY_UPPER_BOUNDARY [nM]>
17005.688756

> <BIOSOLVEIT.HYDE_LIGAND_EFFICIENCY>
0.351096

> <BIOSOLVEIT.HYDE_LIGAND_LIPOPHILIC_EFFICIENCY>
4.069903

> <BIOSOLVEIT.INTER_CLASH range: 0=green, 1=yellow, 2=red>
0

> <BIOSOLVEIT.INTRA_CLASH range: 0=green, 1=yellow, 2=red>
1

> <BIOSOLVEIT.LOGP>
1.6981

> <BIOSOLVEIT.MOLECULAR_WEIGHT>
359.467

> <BIOSOLVEIT.MOLECULE_CHECKSUM>
LTMyLjkyMzg7MC4zNTEwOTY=

> <BIOSOLVEIT.TORSION_QUALITY range: 0=green/not rotatable, 1=yellow, 2=red>
1

> <BIOSOLVEIT.TPSA>
92.5

> <cleaned_smiles (canonical SMILES)>
CS(=O)(=O)N1CC(C1)CSc1[n]c(O)cc(=O)[n]1C1CCCC1

> <BIOSOLVEIT.OPTIBRIUM.2C9 pKi>
4.57553

> <BIOSOLVEIT.OPTIBRIUM.2D6 affinity category>
low

> <BIOSOLVEIT.OPTIBRIUM.BBB category>
-

> <BIOSOLVEIT.OPTIBRIUM.BBB log([brain]:[blood])>
-1.19783

> <BIOSOLVEIT.OPTIBRIUM.hERG pIC50>
5.15297

> <BIOSOLVEIT.OPTIBRIUM.HIA category>
+

> <BIOSOLVEIT.OPTIBRIUM.logD>
0.758321

> <BIOSOLVEIT.OPTIBRIUM.logP>
1.6359

> <BIOSOLVEIT.OPTIBRIUM.logS @ pH7.4>
2.53915

> <BIOSOLVEIT.OPTIBRIUM.logS>
1.83825

> <BIOSOLVEIT.OPTIBRIUM.P-gp category>
yes

> <BIOSOLVEIT.OPTIBRIUM.PPB90 category>
low

$$$$
no name_1_005
phSeeSAR  05142510573D 1   1.00000     0.00000     0
SeeSAR 14.1.2 pham.congdat
 52 54  0  0  0  0            999 V2000
    1.7403   -0.1097   12.9016 O   0  0  0  0  0  0  0  0  0  0  0  0
    1.1886    0.9838   13.0605 C   0  0  0  0  0  0  0  0  0  0  0  0
    1.3339    1.9271   12.1631 O   0  0  0  0  0  0  0  0  0  0  0  0
    2.0695    1.6707   10.9761 C   0  0  0  0  0  0  0  0  0  0  0  0
    1.4478    2.4364    9.8194 C   0  0  0  0  0  0  0  0  0  0  0  0
    0.1091    1.8113    9.4591 C   0  0  0  0  0  0  0  0  0  0  0  0
   -1.0500    2.0963   10.0496 O   0  0  0  0  0  0  0  0  0  0  0  0
   -1.9764    1.3441    9.4576 C   0  0  0  0  0  0  0  0  0  0  0  0
   -1.4124    0.6102    8.5247 N   0  0  0  0  0  0  0  0  0  0  0  0
   -0.0812    0.9087    8.5251 N   0  0  0  0  0  0  0  0  0  0  0  0
   -3.4549    1.3382    9.8111 C   0  0  0  0  0  0  0  0  0  0  0  0
   -3.7230    0.2702   10.7078 O   0  0  0  0  0  0  0  0  0  0  0  0
   -2.4979   -0.2592   11.1930 C   0  0  0  0  0  0  0  0  0  0  0  0
    0.3608    1.2291   14.2685 C   0  0  0  0  0  0  0  0  0  0  0  0
    0.4755    2.4427   14.9393 C   0  0  0  0  0  0  0  0  0  0  0  0
   -0.2947    2.6873   16.0718 C   0  0  0  0  0  0  0  0  0  0  0  0
   -1.1742    1.7052   16.5180 C   0  0  0  0  0  0  0  0  0  0  0  0
   -1.2919    0.4905   15.8508 C   0  0  0  0  0  0  0  0  0  0  0  0
   -0.5196    0.2507   14.7184 C   0  0  0  0  0  0  0  0  0  0  0  0
   -2.0214    1.9584   17.7547 C   0  0  0  0  0  0  0  0  0  0  0  0
   -3.2932    2.5912   17.3582 N   0  3  0  0  0  0  0  0  0  0  0  0
   -4.3358    2.2992   18.3546 C   0  0  0  0  0  0  0  0  0  0  0  0
   -5.6708    2.9052   17.9491 C   0  0  0  0  0  0  0  0  0  0  0  0
   -5.5117    4.4061   17.7632 C   0  0  0  0  0  0  0  0  0  0  0  0
   -4.4369    4.6745   16.7218 C   0  0  0  0  0  0  0  0  0  0  0  0
   -3.1266    4.0386   17.1581 C   0  0  0  0  0  0  0  0  0  0  0  0
    2.0479    0.6224   10.7625 H   0  0  0  0  0  0  0  0  0  0  0  0
    3.0831    1.9867   11.1093 H   0  0  0  0  0  0  0  0  0  0  0  0
    2.1004    2.3948    8.9724 H   0  0  0  0  0  0  0  0  0  0  0  0
    1.2996    3.4566   10.1057 H   0  0  0  0  0  0  0  0  0  0  0  0
   -4.0341    1.2099    8.9205 H   0  0  0  0  0  0  0  0  0  0  0  0
   -3.7146    2.2669   10.2748 H   0  0  0  0  0  0  0  0  0  0  0  0
   -2.6997   -1.0639   11.8686 H   0  0  0  0  0  0  0  0  0  0  0  0
   -1.9155   -0.6209   10.3715 H   0  0  0  0  0  0  0  0  0  0  0  0
   -1.9553    0.5082   11.7044 H   0  0  0  0  0  0  0  0  0  0  0  0
    1.1561    3.1879   14.5841 H   0  0  0  0  0  0  0  0  0  0  0  0
   -0.2118    3.6181   16.5930 H   0  0  0  0  0  0  0  0  0  0  0  0
   -1.9723   -0.2550   16.2060 H   0  0  0  0  0  0  0  0  0  0  0  0
   -0.6024   -0.6801   14.1973 H   0  0  0  0  0  0  0  0  0  0  0  0
   -1.4933    2.6068   18.4223 H   0  0  0  0  0  0  0  0  0  0  0  0
   -2.2231    1.0291   18.2452 H   0  0  0  0  0  0  0  0  0  0  0  0
   -4.0400    2.7069   19.2986 H   0  0  0  0  0  0  0  0  0  0  0  0
   -4.4465    1.2386   18.4431 H   0  0  0  0  0  0  0  0  0  0  0  0
   -6.3953    2.7155   18.7133 H   0  0  0  0  0  0  0  0  0  0  0  0
   -5.9978    2.4649   17.0303 H   0  0  0  0  0  0  0  0  0  0  0  0
   -5.2275    4.8528   18.6929 H   0  0  0  0  0  0  0  0  0  0  0  0
   -6.4397    4.8255   17.4348 H   0  0  0  0  0  0  0  0  0  0  0  0
   -4.3012    5.7305   16.6155 H   0  0  0  0  0  0  0  0  0  0  0  0
   -4.7391    4.2575   15.7839 H   0  0  0  0  0  0  0  0  0  0  0  0
   -2.3865    4.2061   16.4038 H   0  0  0  0  0  0  0  0  0  0  0  0
   -2.8076    4.4857   18.0764 H   0  0  0  0  0  0  0  0  0  0  0  0
   -3.5784    2.1906   16.4874 H   0  0  0  0  0  0  0  0  0  0  0  0
  1  2  2  0  0  0  0
  2  3  1  0  0  0  0
  2 14  1  0  0  0  0
  3  4  1  0  0  0  0
  4  5  1  0  0  0  0
  5  6  1  0  0  0  0
  6  7  1  0  0  0  0
  6 10  2  0  0  0  0
  7  8  1  0  0  0  0
  8  9  2  0  0  0  0
  8 11  1  0  0  0  0
  9 10  1  0  0  0  0
 11 12  1  0  0  0  0
 12 13  1  0  0  0  0
 14 15  2  0  0  0  0
 14 19  1  0  0  0  0
 15 16  1  0  0  0  0
 16 17  2  0  0  0  0
 17 18  1  0  0  0  0
 17 20  1  0  0  0  0
 18 19  2  0  0  0  0
 20 21  1  0  0  0  0
 21 22  1  0  0  0  0
 21 26  1  0  0  0  0
 22 23  1  0  0  0  0
 23 24  1  0  0  0  0
 24 25  1  0  0  0  0
 25 26  1  0  0  0  0
  4 27  1  0  0  0  0
  4 28  1  0  0  0  0
  5 29  1  0  0  0  0
  5 30  1  0  0  0  0
 11 31  1  0  0  0  0
 11 32  1  0  0  0  0
 13 33  1  0  0  0  0
 13 34  1  0  0  0  0
 13 35  1  0  0  0  0
 15 36  1  0  0  0  0
 16 37  1  0  0  0  0
 18 38  1  0  0  0  0
 19 39  1  0  0  0  0
 20 40  1  0  0  0  0
 20 41  1  0  0  0  0
 22 42  1  0  0  0  0
 22 43  1  0  0  0  0
 23 44  1  0  0  0  0
 23 45  1  0  0  0  0
 24 46  1  0  0  0  0
 24 47  1  0  0  0  0
 25 48  1  0  0  0  0
 25 49  1  0  0  0  0
 26 50  1  0  0  0  0
 26 51  1  0  0  0  0
 21 52  1  0  0  0  0
M  CHG  1  21   1
M  END
> <BIOSOLVEIT.HYDE_ATOM_SCORES [kJ/mol]>
# Atom-ID; Total; Rec-Desolv; Rec-IA; Lig-Desolv; Lig-IA
1;0.0000;0.0000;0.0000;0.0000;0.0000
2;0.0000;0.0000;0.0000;0.0000;0.0000
3;0.5307;0.0000;0.0000;0.5307;0.0000
4;0.0000;0.0000;0.0000;0.0000;0.0000
5;-0.3629;0.0000;0.0000;-0.3629;0.0000
6;0.0000;0.0000;0.0000;0.0000;0.0000
7;-5.4161;5.0225;-9.1330;2.6639;-3.9695
8;-0.0494;0.0000;0.0000;-0.0494;0.0000
9;-9.8162;11.0474;-19.4923;6.8441;-8.2153
10;-0.0151;0.0000;0.0000;-0.0151;0.0000
11;-1.6245;0.9011;0.0000;-2.5256;0.0000
12;-5.8152;12.8596;-16.7368;9.5771;-11.5151
13;-1.6505;0.0035;0.0000;-1.6540;0.0000
14;-0.1826;0.0000;0.0000;-0.1826;0.0000
15;-0.4329;0.0000;0.0000;-0.4329;0.0000
16;-0.2882;0.0000;0.0000;-0.2882;0.0000
17;-0.0464;0.0000;0.0000;-0.0464;0.0000
18;-0.5521;0.0000;0.0000;-0.5521;0.0000
19;-0.0859;0.0000;0.0000;-0.0859;0.0000
20;0.0000;0.0000;0.0000;0.0000;0.0000
21;-3.3261;8.8950;-10.3970;10.3626;-12.1868
22;-0.0094;0.0000;0.0000;-0.0094;0.0000
23;-0.3290;0.0000;0.0000;-0.3290;0.0000
24;-0.6346;-0.3587;0.0000;-0.2759;0.0000
25;0.7343;1.7240;0.0000;-0.9897;0.0000
26;-0.2653;0.0000;0.0000;-0.2653;0.0000

> <BIOSOLVEIT.HYDE_ESTIMATED_AFFINITY_LOWER_BOUNDARY [nM]>
462.881967

> <BIOSOLVEIT.HYDE_ESTIMATED_AFFINITY_UPPER_BOUNDARY [nM]>
45990.060201

> <BIOSOLVEIT.HYDE_LIGAND_EFFICIENCY>
0.287319

> <BIOSOLVEIT.HYDE_LIGAND_LIPOPHILIC_EFFICIENCY>
4.151633

> <BIOSOLVEIT.INTER_CLASH range: 0=green, 1=yellow, 2=red>
0

> <BIOSOLVEIT.INTRA_CLASH range: 0=green, 1=yellow, 2=red>
0

> <BIOSOLVEIT.LOGP>
1.1843

> <BIOSOLVEIT.MOLECULAR_WEIGHT>
360.431

> <BIOSOLVEIT.MOLECULE_CHECKSUM>
LTMwLjQ1NzY7MC4yODczMTk=

> <BIOSOLVEIT.TORSION_QUALITY range: 0=green/not rotatable, 1=yellow, 2=red>
1

> <BIOSOLVEIT.TPSA>
78.89

> <cleaned_smiles (canonical SMILES)>
COCc1[n][n]c(CCOC(=O)c2ccc(CN3CCCCC3)cc2)o1

> <BIOSOLVEIT.OPTIBRIUM.2C9 pKi>
4.50349

> <BIOSOLVEIT.OPTIBRIUM.2D6 affinity category>
medium

> <BIOSOLVEIT.OPTIBRIUM.BBB category>
-

> <BIOSOLVEIT.OPTIBRIUM.BBB log([brain]:[blood])>
0.201148

> <BIOSOLVEIT.OPTIBRIUM.hERG pIC50>
6.04296

> <BIOSOLVEIT.OPTIBRIUM.HIA category>
+

> <BIOSOLVEIT.OPTIBRIUM.logD>
1.17806

> <BIOSOLVEIT.OPTIBRIUM.logP>
2.687

> <BIOSOLVEIT.OPTIBRIUM.logS @ pH7.4>
3.11045

> <BIOSOLVEIT.OPTIBRIUM.logS>
3.64386

> <BIOSOLVEIT.OPTIBRIUM.P-gp category>
yes

> <BIOSOLVEIT.OPTIBRIUM.PPB90 category>
low

$$$$
no name_1_008
phSeeSAR  05142510573D 1   1.00000     0.00000     0
SeeSAR 14.1.2 pham.congdat
 38 39  0  0  0  0            999 V2000
   -4.4610   -1.4157   15.6386 Br  0  0  0  0  0  0  0  0  0  0  0  0
   -2.7881   -1.8196   14.6969 C   0  0  0  0  0  0  0  0  0  0  0  0
   -2.6230   -1.5060   13.3510 C   0  0  0  0  0  0  0  0  0  0  0  0
   -1.4671   -1.7930   12.7317 N   0  0  0  0  0  0  0  0  0  0  0  0
   -0.4478   -2.3826   13.3759 C   0  0  0  0  0  0  0  0  0  0  0  0
   -0.5863   -2.6933   14.6741 N   0  0  0  0  0  0  0  0  0  0  0  0
   -1.7184   -2.4295   15.3451 C   0  0  0  0  0  0  0  0  0  0  0  0
    0.8569   -2.7035   12.6616 C   0  0  2  0  0  0  0  0  0  0  0  0
    0.7905   -2.2145   11.2769 N   0  0  0  0  0  0  0  0  0  0  0  0
    0.9502   -0.8796   11.0134 C   0  0  0  0  0  0  0  0  0  0  0  0
    1.1498   -0.0871   11.9392 O   0  0  0  0  0  0  0  0  0  0  0  0
    0.8883   -0.4239    9.7229 N   0  0  0  0  0  0  0  0  0  0  0  0
    1.0596    1.0085    9.4402 C   0  0  0  0  0  0  0  0  0  0  0  0
   -0.1260    1.5108    8.6388 C   0  0  2  0  0  0  0  0  0  0  0  0
   -0.1428    1.0201    7.3080 O   0  0  0  0  0  0  0  0  0  0  0  0
    0.8635    1.7103    6.5865 C   0  0  0  0  0  0  0  0  0  0  0  0
    0.7462    3.1259    7.1094 C   0  0  0  0  0  0  0  0  0  0  0  0
   -0.0965    3.0027    8.3668 C   0  0  0  0  0  0  0  0  0  0  0  0
   -1.3846    1.1200    9.3933 C   0  0  0  0  0  0  0  0  0  0  0  0
   -2.1832    0.2937    8.8942 O   0  0  0  0  0  0  0  0  0  0  0  0
   -1.6243    1.6242   10.5151 O   0  5  0  0  0  0  0  0  0  0  0  0
    1.0759   -4.2076   12.6580 C   0  0  0  0  0  0  0  0  0  0  0  0
   -3.4175   -1.0360   12.8098 H   0  0  0  0  0  0  0  0  0  0  0  0
   -1.7985   -2.6886   16.3801 H   0  0  0  0  0  0  0  0  0  0  0  0
    1.6686   -2.2261   13.1699 H   0  0  0  0  0  0  0  0  0  0  0  0
    0.6288   -2.8563   10.5272 H   0  0  0  0  0  0  0  0  0  0  0  0
    0.7266   -1.0657    8.9732 H   0  0  0  0  0  0  0  0  0  0  0  0
    1.9582    1.1562    8.8784 H   0  0  0  0  0  0  0  0  0  0  0  0
    1.1220    1.5489   10.3615 H   0  0  0  0  0  0  0  0  0  0  0  0
    0.6766    1.6724    5.5337 H   0  0  0  0  0  0  0  0  0  0  0  0
    1.8316    1.3034    6.7918 H   0  0  0  0  0  0  0  0  0  0  0  0
    0.2629    3.7548    6.3912 H   0  0  0  0  0  0  0  0  0  0  0  0
    1.7120    3.5245    7.3398 H   0  0  0  0  0  0  0  0  0  0  0  0
    0.3549    3.5297    9.1813 H   0  0  0  0  0  0  0  0  0  0  0  0
   -1.0843    3.3796    8.2020 H   0  0  0  0  0  0  0  0  0  0  0  0
    1.9934   -4.4333   12.1557 H   0  0  0  0  0  0  0  0  0  0  0  0
    1.1242   -4.5634   13.6660 H   0  0  0  0  0  0  0  0  0  0  0  0
    0.2642   -4.6850   12.1498 H   0  0  0  0  0  0  0  0  0  0  0  0
  1  2  1  0  0  0  0
  2  3  2  0  0  0  0
  2  7  1  0  0  0  0
  3  4  1  0  0  0  0
  4  5  2  0  0  0  0
  5  6  1  0  0  0  0
  5  8  1  0  0  0  0
  6  7  2  0  0  0  0
  8  9  1  0  0  0  0
  8 22  1  0  0  0  0
  9 10  1  0  0  0  0
 10 11  2  0  0  0  0
 10 12  1  0  0  0  0
 12 13  1  0  0  0  0
 13 14  1  0  0  0  0
 14 15  1  0  0  0  0
 14 18  1  0  0  0  0
 14 19  1  0  0  0  0
 15 16  1  0  0  0  0
 16 17  1  0  0  0  0
 17 18  1  0  0  0  0
 19 20  2  0  0  0  0
 19 21  1  0  0  0  0
  3 23  1  0  0  0  0
  7 24  1  0  0  0  0
  8 25  1  0  0  0  0
  9 26  1  0  0  0  0
 12 27  1  0  0  0  0
 13 28  1  0  0  0  0
 13 29  1  0  0  0  0
 16 30  1  0  0  0  0
 16 31  1  0  0  0  0
 17 32  1  0  0  0  0
 17 33  1  0  0  0  0
 18 34  1  0  0  0  0
 18 35  1  0  0  0  0
 22 38  1  0  0  0  0
 22 36  1  0  0  0  0
 22 37  1  0  0  0  0
M  CHG  1  21  -1
M  END
> <BIOSOLVEIT.HYDE_ATOM_SCORES [kJ/mol]>
# Atom-ID; Total; Rec-Desolv; Rec-IA; Lig-Desolv; Lig-IA
1;-2.2706;-1.1083;0.0000;-1.1623;0.0000
2;-0.0121;0.0000;0.0000;-0.0121;0.0000
3;1.4254;2.5837;0.0000;-1.1583;0.0000
4;0.0000;0.0000;0.0000;0.0000;0.0000
5;0.0000;0.0000;0.0000;0.0000;0.0000
6;0.0000;0.0000;0.0000;0.0000;0.0000
7;0.0000;0.0000;0.0000;0.0000;0.0000
8;0.0000;0.0000;0.0000;0.0000;0.0000
9;0.1850;0.0292;0.0000;0.1559;0.0000
10;0.0000;0.0000;0.0000;0.0000;0.0000
11;0.0000;0.0000;0.0000;0.0000;0.0000
12;1.7548;0.0000;0.0000;1.7548;0.0000
13;0.0000;0.0000;0.0000;0.0000;0.0000
14;0.0000;0.0000;0.0000;0.0000;0.0000
15;-11.5420;9.7357;-19.9261;8.2359;-9.5874
16;-1.9395;-1.1240;0.0000;-0.8155;0.0000
17;-1.1683;-0.7107;0.0000;-0.4576;0.0000
18;-0.6402;0.2886;0.0000;-0.9288;0.0000
19;-0.0196;0.0000;0.0000;-0.0196;0.0000
20;-11.1584;9.5063;-19.8869;4.3299;-5.1076
21;5.4682;6.4331;-3.4114;4.5253;-2.0789
22;-1.5335;-0.7058;0.0000;-0.8277;0.0000

> <BIOSOLVEIT.HYDE_ESTIMATED_AFFINITY_LOWER_BOUNDARY [nM]>
16607.709018

> <BIOSOLVEIT.HYDE_ESTIMATED_AFFINITY_UPPER_BOUNDARY [nM]>
1650074.083523

> <BIOSOLVEIT.HYDE_LIGAND_EFFICIENCY>
0.240615

> <BIOSOLVEIT.HYDE_LIGAND_LIPOPHILIC_EFFICIENCY>
3.882693

> <BIOSOLVEIT.INTER_CLASH range: 0=green, 1=yellow, 2=red>
0

> <BIOSOLVEIT.INTRA_CLASH range: 0=green, 1=yellow, 2=red>
0

> <BIOSOLVEIT.LOGP>
-0.1016

> <BIOSOLVEIT.MOLECULAR_WEIGHT>
372.197

> <BIOSOLVEIT.MOLECULE_CHECKSUM>
LTIxLjU4MjU7MC4yNDA2MTU=

> <BIOSOLVEIT.TORSION_QUALITY range: 0=green/not rotatable, 1=yellow, 2=red>
0

> <BIOSOLVEIT.TPSA>
116.27

> <cleaned_smiles (canonical SMILES)>
CC(NC(=O)NCC1(CCCO1)C(O)=O)c1[n]cc(Br)c[n]1

$$$$
no name_1_004
phSeeSAR  05142510573D 1   1.00000     0.00000     0
SeeSAR 14.1.2 pham.congdat
 51 53  0  0  0  0            999 V2000
    2.0061    1.1398    8.6486 S   0  0  0  0  0  0  0  0  0  0  0  0
    0.4166    0.4834    8.7097 C   0  0  0  0  0  0  0  0  0  0  0  0
   -0.1333    0.6327    7.5244 N   0  0  0  0  0  0  0  0  0  0  0  0
    0.6625    1.2497    6.5665 C   0  0  0  0  0  0  0  0  0  0  0  0
    1.9018    1.6134    6.9987 C   0  0  0  0  0  0  0  0  0  0  0  0
    2.9838    2.2991    6.1831 C   0  0  0  0  0  0  0  0  0  0  0  0
   -0.2169   -0.1542    9.9317 C   0  0  2  0  0  0  0  0  0  0  0  0
    0.0812   -1.5937    9.9434 N   0  3  0  0  0  0  0  0  0  0  0  0
    1.2312   -1.8487   10.8228 C   0  0  2  0  0  0  0  0  0  0  0  0
    1.3802   -3.3457   11.0408 C   0  0  0  0  0  0  0  0  0  0  0  0
    2.7103   -3.6350   11.4452 O   0  0  0  0  0  0  0  0  0  0  0  0
    3.1280   -3.3203   12.7280 C   0  0  0  0  0  0  0  0  0  0  0  0
    2.5675   -3.9720   13.8211 C   0  0  0  0  0  0  0  0  0  0  0  0
    2.9848   -3.6625   15.1118 C   0  0  0  0  0  0  0  0  0  0  0  0
    3.9657   -2.6957   15.3081 C   0  0  0  0  0  0  0  0  0  0  0  0
    4.5282   -2.0417   14.2154 C   0  0  0  0  0  0  0  0  0  0  0  0
    4.1095   -2.3548   12.9262 C   0  0  0  0  0  0  0  0  0  0  0  0
    4.7234   -1.6410   11.7333 C   0  0  0  0  0  0  0  0  0  0  0  0
    1.4965   -5.0297   13.6084 C   0  0  0  0  0  0  0  0  0  0  0  0
    1.0085   -1.1617   12.1603 C   0  0  0  0  0  0  0  0  0  0  0  0
   -1.7229    0.0511    9.8873 C   0  0  0  0  0  0  0  0  0  0  0  0
   -2.4188    0.3843    8.8266 N   0  0  0  0  0  0  0  0  0  0  0  0
   -3.7299    0.4702    9.1957 N   0  0  0  0  0  0  0  0  0  0  0  0
   -3.8174    0.1999   10.4569 N   0  0  0  0  0  0  0  0  0  0  0  0
   -2.5867   -0.0758   10.9544 N   0  0  0  0  0  0  0  0  0  0  0  0
   -2.2451   -0.4270   12.3405 C   0  0  0  0  0  0  0  0  0  0  0  0
    0.3271    1.4255    5.5657 H   0  0  0  0  0  0  0  0  0  0  0  0
    2.6282    2.4661    5.1878 H   0  0  0  0  0  0  0  0  0  0  0  0
    3.2311    3.2367    6.6354 H   0  0  0  0  0  0  0  0  0  0  0  0
    3.8543    1.6777    6.1513 H   0  0  0  0  0  0  0  0  0  0  0  0
    0.1791    0.2992   10.8163 H   0  0  0  0  0  0  0  0  0  0  0  0
    2.1201   -1.4643   10.3680 H   0  0  0  0  0  0  0  0  0  0  0  0
    1.1644   -3.8621   10.1289 H   0  0  0  0  0  0  0  0  0  0  0  0
    0.6987   -3.6649   11.8013 H   0  0  0  0  0  0  0  0  0  0  0  0
    2.5526   -4.1666   15.9509 H   0  0  0  0  0  0  0  0  0  0  0  0
    4.2880   -2.4545   16.2995 H   0  0  0  0  0  0  0  0  0  0  0  0
    5.2826   -1.2983   14.3670 H   0  0  0  0  0  0  0  0  0  0  0  0
    5.4538   -0.9379   12.0755 H   0  0  0  0  0  0  0  0  0  0  0  0
    5.1914   -2.3575   11.0910 H   0  0  0  0  0  0  0  0  0  0  0  0
    3.9571   -1.1249   11.1934 H   0  0  0  0  0  0  0  0  0  0  0  0
    1.1869   -5.4193   14.5556 H   0  0  0  0  0  0  0  0  0  0  0  0
    0.6564   -4.5916   13.1111 H   0  0  0  0  0  0  0  0  0  0  0  0
    1.8923   -5.8225   13.0087 H   0  0  0  0  0  0  0  0  0  0  0  0
    1.8457   -1.3473   12.8004 H   0  0  0  0  0  0  0  0  0  0  0  0
    0.9036   -0.1079   12.0070 H   0  0  0  0  0  0  0  0  0  0  0  0
    0.1196   -1.5462   12.6151 H   0  0  0  0  0  0  0  0  0  0  0  0
   -3.1351   -0.4415   12.9344 H   0  0  0  0  0  0  0  0  0  0  0  0
   -1.7868   -1.3937   12.3609 H   0  0  0  0  0  0  0  0  0  0  0  0
   -1.5649    0.2986   12.7349 H   0  0  0  0  0  0  0  0  0  0  0  0
    0.2976   -1.8969    9.0153 H   0  0  0  0  0  0  0  0  0  0  0  0
   -0.7146   -2.0961   10.2812 H   0  0  0  0  0  0  0  0  0  0  0  0
  1  2  1  0  0  0  0
  1  5  1  0  0  0  0
  2  3  2  0  0  0  0
  2  7  1  0  0  0  0
  3  4  1  0  0  0  0
  4  5  2  0  0  0  0
  5  6  1  0  0  0  0
  7  8  1  0  0  0  0
  7 21  1  0  0  0  0
  8  9  1  0  0  0  0
  9 10  1  0  0  0  0
  9 20  1  0  0  0  0
 10 11  1  0  0  0  0
 11 12  1  0  0  0  0
 12 13  2  0  0  0  0
 12 17  1  0  0  0  0
 13 14  1  0  0  0  0
 13 19  1  0  0  0  0
 14 15  2  0  0  0  0
 15 16  1  0  0  0  0
 16 17  2  0  0  0  0
 17 18  1  0  0  0  0
 21 22  2  0  0  0  0
 21 25  1  0  0  0  0
 22 23  1  0  0  0  0
 23 24  2  0  0  0  0
 24 25  1  0  0  0  0
 25 26  1  0  0  0  0
  4 27  1  0  0  0  0
  6 28  1  0  0  0  0
  6 29  1  0  0  0  0
  6 30  1  0  0  0  0
  7 31  1  0  0  0  0
  8 50  1  0  0  0  0
  9 32  1  0  0  0  0
 10 33  1  0  0  0  0
 10 34  1  0  0  0  0
 14 35  1  0  0  0  0
 15 36  1  0  0  0  0
 16 37  1  0  0  0  0
 18 38  1  0  0  0  0
 18 39  1  0  0  0  0
 18 40  1  0  0  0  0
 19 41  1  0  0  0  0
 19 42  1  0  0  0  0
 19 43  1  0  0  0  0
 20 44  1  0  0  0  0
 20 45  1  0  0  0  0
 20 46  1  0  0  0  0
 26 47  1  0  0  0  0
 26 48  1  0  0  0  0
 26 49  1  0  0  0  0
  8 51  1  0  0  0  0
M  CHG  1   8   1
M  END
> <BIOSOLVEIT.HYDE_ATOM_SCORES [kJ/mol]>
# Atom-ID; Total; Rec-Desolv; Rec-IA; Lig-Desolv; Lig-IA
1;0.1204;0.1204;0.0000;0.0000;0.0000
2;0.0000;0.0000;0.0000;0.0000;0.0000
3;-11.4826;10.0000;-19.9980;6.9440;-8.4285
4;-3.0394;-2.0234;0.0000;-1.0160;0.0000
5;0.0000;0.0000;0.0000;0.0000;0.0000
6;-0.1705;0.0000;0.0000;-0.1705;0.0000
7;0.0000;0.0000;0.0000;0.0000;0.0000
8;-1.2101;-1.8041;0.0000;0.5940;0.0000
9;0.0000;0.0000;0.0000;0.0000;0.0000
10;-0.8484;-0.2204;0.0000;-0.6280;0.0000
11;-3.0621;6.3959;-8.4255;4.1019;-5.1344
12;-0.2520;0.0000;0.0000;-0.2520;0.0000
13;0.0000;0.0000;0.0000;0.0000;0.0000
14;-0.2733;0.0000;0.0000;-0.2733;0.0000
15;0.1216;0.5849;0.0000;-0.4633;0.0000
16;-0.1168;0.0000;0.0000;-0.1168;0.0000
17;0.0000;0.0000;0.0000;0.0000;0.0000
18;-0.4631;0.0000;0.0000;-0.4631;0.0000
19;-2.9473;-1.6340;0.0000;-1.3134;0.0000
20;0.0000;0.0000;0.0000;0.0000;0.0000
21;-0.2713;0.0000;0.0000;-0.2713;0.0000
22;-11.5344;10.0000;-19.9981;6.8922;-8.4285
23;6.2715;-0.4896;0.0000;6.7611;0.0000
24;-1.8837;13.5500;-14.4296;6.7926;-7.7966
25;1.5017;1.5904;0.0000;-0.0887;0.0000
26;-2.7586;-1.2144;0.0000;-1.5443;0.0000

> <BIOSOLVEIT.HYDE_ESTIMATED_AFFINITY_LOWER_BOUNDARY [nM]>
180.508791

> <BIOSOLVEIT.HYDE_ESTIMATED_AFFINITY_UPPER_BOUNDARY [nM]>
17934.615615

> <BIOSOLVEIT.HYDE_LIGAND_EFFICIENCY>
0.309341

> <BIOSOLVEIT.HYDE_LIGAND_LIPOPHILIC_EFFICIENCY>
4.032745

> <BIOSOLVEIT.INTER_CLASH range: 0=green, 1=yellow, 2=red>
0

> <BIOSOLVEIT.INTRA_CLASH range: 0=green, 1=yellow, 2=red>
1

> <BIOSOLVEIT.LOGP>
1.71216

> <BIOSOLVEIT.MOLECULAR_WEIGHT>
373.502

> <BIOSOLVEIT.MOLECULE_CHECKSUM>
LTMyLjc5MjswLjMwOTM0MQ==

> <BIOSOLVEIT.TORSION_QUALITY range: 0=green/not rotatable, 1=yellow, 2=red>
0

> <BIOSOLVEIT.TPSA>
82.33

> <cleaned_smiles (canonical SMILES)>
CC(COc1c(C)cccc1C)NC(c1[n]cc(C)[s]1)c1[n][n][n][n]1C

$$$$
no name_1_003
phSeeSAR  05142510573D 1   1.00000     0.00000     0
SeeSAR 14.1.2 pham.congdat
 50 52  0  0  0  0            999 V2000
    3.8543   -3.0942   10.9235 O   0  0  0  0  0  0  0  0  0  0  0  0
    2.9049   -2.4385   11.3640 C   0  0  0  0  0  0  0  0  0  0  0  0
    2.6274   -1.2014   10.8448 N   0  0  0  0  0  0  0  0  0  0  0  0
    3.4595   -0.6547    9.7633 C   0  0  0  0  0  0  0  0  0  0  0  0
    2.9915    0.7515    9.4254 C   0  0  0  0  0  0  0  0  0  0  0  0
    1.5737    0.7158    9.0358 N   0  0  0  0  0  0  0  0  0  0  0  0
    0.5132    0.7380    9.8914 N   0  0  0  0  0  0  0  0  0  0  0  0
   -0.5609    0.6942    9.1271 C   0  0  0  0  0  0  0  0  0  0  0  0
   -0.2180    0.6364    7.7866 N   0  0  0  0  0  0  0  0  0  0  0  0
    1.0976    0.6530    7.7358 C   0  0  0  0  0  0  0  0  0  0  0  0
   -1.9565    0.7086    9.6349 C   0  0  0  0  0  0  0  0  0  0  0  0
   -2.3176    0.8269   10.8888 N   0  0  0  0  0  0  0  0  0  0  0  0
   -3.6789    0.7866   10.8685 N   0  0  0  0  0  0  0  0  0  0  0  0
   -4.0908    0.6440    9.6464 N   0  0  0  0  0  0  0  0  0  0  0  0
   -3.0996    0.6005    8.8640 N   0  5  0  0  0  0  0  0  0  0  0  0
    2.1293   -2.9481   12.3719 N   0  0  0  0  0  0  0  0  0  0  0  0
    2.4272   -4.2754   12.9290 C   0  0  0  0  0  0  0  0  0  0  0  0
    1.5290   -4.5350   14.1275 C   0  0  0  0  0  0  0  0  0  0  0  0
    2.3668   -4.5450   15.3958 C   0  0  0  0  0  0  0  0  0  0  0  0
    3.5135   -5.0030   15.3747 O   0  0  0  0  0  0  0  0  0  0  0  0
    1.8672   -4.0626   16.5229 N   0  0  0  0  0  0  0  0  0  0  0  0
    0.5004   -3.5140   16.5587 C   0  0  0  0  0  0  0  0  0  0  0  0
   -0.5438   -4.5694   16.9153 C   0  0  0  0  0  0  0  0  0  0  0  0
   -0.4770   -5.0932   18.3459 C   0  0  0  0  0  0  0  0  0  0  0  0
    0.8991   -5.5133   18.8516 C   0  0  0  0  0  0  0  0  0  0  0  0
    1.9167   -4.3879   18.9999 C   0  0  0  0  0  0  0  0  0  0  0  0
    2.7098   -4.0975   17.7280 C   0  0  0  0  0  0  0  0  0  0  0  0
    1.8588   -0.6704   11.2014 H   0  0  0  0  0  0  0  0  0  0  0  0
    3.3731   -1.2771    8.8973 H   0  0  0  0  0  0  0  0  0  0  0  0
    4.4811   -0.6241   10.0801 H   0  0  0  0  0  0  0  0  0  0  0  0
    3.5746    1.1363    8.6150 H   0  0  0  0  0  0  0  0  0  0  0  0
    3.1103    1.3823   10.2815 H   0  0  0  0  0  0  0  0  0  0  0  0
    1.6938    0.6232    6.8478 H   0  0  0  0  0  0  0  0  0  0  0  0
    1.3606   -2.4172   12.7284 H   0  0  0  0  0  0  0  0  0  0  0  0
    3.4514   -4.3114   13.2364 H   0  0  0  0  0  0  0  0  0  0  0  0
    2.2521   -5.0227   12.1835 H   0  0  0  0  0  0  0  0  0  0  0  0
    1.0453   -5.4825   14.0121 H   0  0  0  0  0  0  0  0  0  0  0  0
    0.7908   -3.7634   14.1938 H   0  0  0  0  0  0  0  0  0  0  0  0
    0.2667   -3.1119   15.5951 H   0  0  0  0  0  0  0  0  0  0  0  0
    0.4630   -2.7334   17.2895 H   0  0  0  0  0  0  0  0  0  0  0  0
   -0.4147   -5.3996   16.2527 H   0  0  0  0  0  0  0  0  0  0  0  0
   -1.5124   -4.1404   16.7649 H   0  0  0  0  0  0  0  0  0  0  0  0
   -1.1215   -5.9447   18.4111 H   0  0  0  0  0  0  0  0  0  0  0  0
   -0.8394   -4.3213   18.9923 H   0  0  0  0  0  0  0  0  0  0  0  0
    1.2980   -6.2297   18.1642 H   0  0  0  0  0  0  0  0  0  0  0  0
    0.7721   -5.9712   19.8103 H   0  0  0  0  0  0  0  0  0  0  0  0
    2.6063   -4.6572   19.7725 H   0  0  0  0  0  0  0  0  0  0  0  0
    1.3949   -3.4973   19.2819 H   0  0  0  0  0  0  0  0  0  0  0  0
    3.1914   -3.1480   17.8353 H   0  0  0  0  0  0  0  0  0  0  0  0
    3.4494   -4.8608   17.6053 H   0  0  0  0  0  0  0  0  0  0  0  0
  1  2  2  0  0  0  0
  2  3  1  0  0  0  0
  2 16  1  0  0  0  0
  3  4  1  0  0  0  0
  4  5  1  0  0  0  0
  5  6  1  0  0  0  0
  6  7  1  0  0  0  0
  6 10  1  0  0  0  0
  7  8  2  0  0  0  0
  8  9  1  0  0  0  0
  8 11  1  0  0  0  0
  9 10  2  0  0  0  0
 11 12  2  0  0  0  0
 11 15  1  0  0  0  0
 12 13  1  0  0  0  0
 13 14  2  0  0  0  0
 14 15  1  0  0  0  0
 16 17  1  0  0  0  0
 17 18  1  0  0  0  0
 18 19  1  0  0  0  0
 19 20  2  0  0  0  0
 19 21  1  0  0  0  0
 21 22  1  0  0  0  0
 21 27  1  0  0  0  0
 22 23  1  0  0  0  0
 23 24  1  0  0  0  0
 24 25  1  0  0  0  0
 25 26  1  0  0  0  0
 26 27  1  0  0  0  0
  3 28  1  0  0  0  0
  4 29  1  0  0  0  0
  4 30  1  0  0  0  0
  5 31  1  0  0  0  0
  5 32  1  0  0  0  0
 10 33  1  0  0  0  0
 27 50  1  0  0  0  0
 16 34  1  0  0  0  0
 17 35  1  0  0  0  0
 17 36  1  0  0  0  0
 18 37  1  0  0  0  0
 18 38  1  0  0  0  0
 22 39  1  0  0  0  0
 22 40  1  0  0  0  0
 23 41  1  0  0  0  0
 23 42  1  0  0  0  0
 24 43  1  0  0  0  0
 24 44  1  0  0  0  0
 25 45  1  0  0  0  0
 25 46  1  0  0  0  0
 26 47  1  0  0  0  0
 26 48  1  0  0  0  0
 27 49  1  0  0  0  0
M  CHG  1  15  -1
M  END
> <BIOSOLVEIT.HYDE_ATOM_SCORES [kJ/mol]>
# Atom-ID; Total; Rec-Desolv; Rec-IA; Lig-Desolv; Lig-IA
1;-1.8138;6.4785;-8.4143;10.5043;-10.3823
2;0.0000;0.0000;0.0000;0.0000;0.0000
3;0.0000;0.0000;0.0000;0.0000;0.0000
4;0.0000;0.0000;0.0000;0.0000;0.0000
5;0.0000;0.0000;0.0000;0.0000;0.0000
6;0.0000;0.0000;0.0000;0.0000;0.0000
7;0.7070;0.7070;0.0000;0.0000;0.0000
8;-0.1822;0.0000;0.0000;-0.1822;0.0000
9;-10.7808;9.8925;-19.3990;6.9018;-8.1760
10;0.0000;0.0000;0.0000;0.0000;0.0000
11;-0.1573;0.0000;0.0000;-0.1573;0.0000
12;6.8364;6.3716;0.0000;0.4648;0.0000
13;-3.1362;6.9238;-8.4287;6.7974;-8.4287
14;-2.9232;6.4023;-8.0374;6.7493;-8.0374
15;-12.4482;8.7502;-19.6822;6.7792;-8.2954
16;0.0000;0.0000;0.0000;0.0000;0.0000
17;-1.4101;-0.7311;0.0000;-0.6789;0.0000
18;-0.6699;0.0000;0.0000;-0.6699;0.0000
19;-0.7155;-0.3843;0.0000;-0.3312;0.0000
20;-4.1742;5.4514;-8.2147;8.7252;-10.1360
21;0.0000;0.0000;0.0000;0.0000;0.0000
22;0.0000;0.0000;0.0000;0.0000;0.0000
23;-0.8712;-0.2982;0.0000;-0.5729;0.0000
24;-1.2552;-0.8220;0.0000;-0.4333;0.0000
25;-2.0577;-0.9589;0.0000;-1.0987;0.0000
26;-0.1358;0.0000;0.0000;-0.1358;0.0000
27;-0.5191;0.0000;0.0000;-0.5191;0.0000

> <BIOSOLVEIT.HYDE_ESTIMATED_AFFINITY_LOWER_BOUNDARY [nM]>
46.744661

> <BIOSOLVEIT.HYDE_ESTIMATED_AFFINITY_UPPER_BOUNDARY [nM]>
4644.358483

> <BIOSOLVEIT.HYDE_LIGAND_EFFICIENCY>
0.328309

> <BIOSOLVEIT.HYDE_LIGAND_LIPOPHILIC_EFFICIENCY>
6.383171

> <BIOSOLVEIT.INTER_CLASH range: 0=green, 1=yellow, 2=red>
0

> <BIOSOLVEIT.INTRA_CLASH range: 0=green, 1=yellow, 2=red>
0

> <BIOSOLVEIT.LOGP>
-0.0515

> <BIOSOLVEIT.MOLECULAR_WEIGHT>
375.415

> <BIOSOLVEIT.MOLECULE_CHECKSUM>
LTM2LjE0MTI7MC4zMjgzMDk=

> <BIOSOLVEIT.TORSION_QUALITY range: 0=green/not rotatable, 1=yellow, 2=red>
1

> <BIOSOLVEIT.TPSA>
144.92

> <cleaned_smiles (canonical SMILES)>
O=C(NCCC(=O)N1CCCCCC1)NCC[n]1c[n]c([n]1)-c1[nH][n][n][n]1

> <BIOSOLVEIT.OPTIBRIUM.2C9 pKi>
4.19895

> <BIOSOLVEIT.OPTIBRIUM.2D6 affinity category>
low

> <BIOSOLVEIT.OPTIBRIUM.BBB category>
-

> <BIOSOLVEIT.OPTIBRIUM.BBB log([brain]:[blood])>
-1.5524

> <BIOSOLVEIT.OPTIBRIUM.hERG pIC50>
4.531

> <BIOSOLVEIT.OPTIBRIUM.HIA category>
-

> <BIOSOLVEIT.OPTIBRIUM.logD>
0.335053

> <BIOSOLVEIT.OPTIBRIUM.logP>
0.335053

> <BIOSOLVEIT.OPTIBRIUM.logS @ pH7.4>
3.89093

> <BIOSOLVEIT.OPTIBRIUM.logS>
3.89093

> <BIOSOLVEIT.OPTIBRIUM.P-gp category>
yes

> <BIOSOLVEIT.OPTIBRIUM.PPB90 category>
low

$$$$
no name_1_002
phSeeSAR  05142510573D 1   1.00000     0.00000     0
SeeSAR 14.1.2 pham.congdat
 46 47  0  0  0  0            999 V2000
    3.4677   -3.6412   17.2508 F   0  0  0  0  0  0  0  0  0  0  0  0
    2.7098   -3.6663   16.1591 C   0  0  0  0  0  0  0  0  0  0  0  0
    1.6254   -4.5356   16.1081 C   0  0  0  0  0  0  0  0  0  0  0  0
    0.8358   -4.5577   14.9632 C   0  0  0  0  0  0  0  0  0  0  0  0
   -0.2054   -5.3822   14.8952 F   0  0  0  0  0  0  0  0  0  0  0  0
    1.1177   -3.7292   13.8823 C   0  0  0  0  0  0  0  0  0  0  0  0
    2.2084   -2.8692   13.9589 C   0  0  0  0  0  0  0  0  0  0  0  0
    2.5108   -2.0087   12.8515 N   0  0  0  0  0  0  0  0  0  0  0  0
    3.0869   -2.3293   11.7045 C   0  0  0  0  0  0  0  0  0  0  0  0
    3.4334   -3.4954   11.4922 O   0  0  0  0  0  0  0  0  0  0  0  0
    3.3221   -1.2621   10.6479 C   0  0  0  0  0  0  0  0  0  0  0  0
    1.9852   -0.7774   10.1109 C   0  0  0  0  0  0  0  0  0  0  0  0
    0.9331   -1.2039   10.5972 O   0  0  0  0  0  0  0  0  0  0  0  0
    1.9487    0.1015    9.1227 N   0  0  0  0  0  0  0  0  0  0  0  0
    0.6559    0.5703    8.6033 C   0  0  2  0  0  0  0  0  0  0  0  0
    0.7663    0.8043    7.1055 C   0  0  0  0  0  0  0  0  0  0  0  0
   -0.0620    0.3018    6.3394 O   0  0  0  0  0  0  0  0  0  0  0  0
    1.7494    1.5460    6.6225 N   0  0  0  0  0  0  0  0  0  0  0  0
    0.2743    1.8703    9.2925 C   0  0  0  0  0  0  0  0  0  0  0  0
   -1.0220    2.3970    8.6989 C   0  0  0  0  0  0  0  0  0  0  0  0
   -2.1935    1.6073    9.2594 C   0  0  0  0  0  0  0  0  0  0  0  0
   -2.5006    1.4776   10.5260 N   0  0  0  0  0  0  0  0  0  0  0  0
   -3.6131    0.6921   10.5604 N   0  0  0  0  0  0  0  0  0  0  0  0
   -3.9322    0.3748    9.3455 N   0  0  0  0  0  0  0  0  0  0  0  0
   -3.1237    0.8916    8.5267 N   0  5  0  0  0  0  0  0  0  0  0  0
    4.1427   -1.8478    9.5103 C   0  0  0  0  0  0  0  0  0  0  0  0
    4.0735   -0.0943   11.2658 C   0  0  0  0  0  0  0  0  0  0  0  0
    3.0137   -2.8276   15.0919 C   0  0  0  0  0  0  0  0  0  0  0  0
    1.4025   -5.1766   16.9353 H   0  0  0  0  0  0  0  0  0  0  0  0
    0.5050   -3.7528   13.0054 H   0  0  0  0  0  0  0  0  0  0  0  0
    2.2547   -1.0482   12.9601 H   0  0  0  0  0  0  0  0  0  0  0  0
    2.8006    0.4469    8.7290 H   0  0  0  0  0  0  0  0  0  0  0  0
   -0.0942   -0.1684    8.7946 H   0  0  0  0  0  0  0  0  0  0  0  0
    1.8221    1.7000    5.6371 H   0  0  0  0  0  0  0  0  0  0  0  0
    2.4201    1.9528    7.2429 H   0  0  0  0  0  0  0  0  0  0  0  0
    1.0515    2.5916    9.1488 H   0  0  0  0  0  0  0  0  0  0  0  0
    0.1412    1.6932   10.3393 H   0  0  0  0  0  0  0  0  0  0  0  0
   -0.9963    2.2898    7.6346 H   0  0  0  0  0  0  0  0  0  0  0  0
   -1.1355    3.4307    8.9506 H   0  0  0  0  0  0  0  0  0  0  0  0
    4.3083   -1.0967    8.7665 H   0  0  0  0  0  0  0  0  0  0  0  0
    5.0837   -2.1890    9.8883 H   0  0  0  0  0  0  0  0  0  0  0  0
    3.6137   -2.6699    9.0754 H   0  0  0  0  0  0  0  0  0  0  0  0
    4.2391    0.6569   10.5220 H   0  0  0  0  0  0  0  0  0  0  0  0
    3.4959    0.3179   12.0666 H   0  0  0  0  0  0  0  0  0  0  0  0
    5.0146   -0.4356   11.6437 H   0  0  0  0  0  0  0  0  0  0  0  0
    3.8510   -2.1632   15.1416 H   0  0  0  0  0  0  0  0  0  0  0  0
  1  2  1  0  0  0  0
  2  3  2  0  0  0  0
  2 28  1  0  0  0  0
  3  4  1  0  0  0  0
  4  5  1  0  0  0  0
  4  6  2  0  0  0  0
  6  7  1  0  0  0  0
  7  8  1  0  0  0  0
  7 28  2  0  0  0  0
  8  9  1  0  0  0  0
  9 10  2  0  0  0  0
  9 11  1  0  0  0  0
 11 12  1  0  0  0  0
 11 26  1  0  0  0  0
 11 27  1  0  0  0  0
 12 13  2  0  0  0  0
 12 14  1  0  0  0  0
 14 15  1  0  0  0  0
 15 16  1  0  0  0  0
 15 19  1  0  0  0  0
 16 17  2  0  0  0  0
 16 18  1  0  0  0  0
 19 20  1  0  0  0  0
 20 21  1  0  0  0  0
 21 22  2  0  0  0  0
 21 25  1  0  0  0  0
 22 23  1  0  0  0  0
 23 24  2  0  0  0  0
 24 25  1  0  0  0  0
  3 29  1  0  0  0  0
  6 30  1  0  0  0  0
  8 31  1  0  0  0  0
 14 32  1  0  0  0  0
 15 33  1  0  0  0  0
 18 34  1  0  0  0  0
 18 35  1  0  0  0  0
 19 36  1  0  0  0  0
 19 37  1  0  0  0  0
 20 38  1  0  0  0  0
 20 39  1  0  0  0  0
 28 46  1  0  0  0  0
 26 40  1  0  0  0  0
 26 41  1  0  0  0  0
 26 42  1  0  0  0  0
 27 43  1  0  0  0  0
 27 44  1  0  0  0  0
 27 45  1  0  0  0  0
M  CHG  1  25  -1
M  END
> <BIOSOLVEIT.HYDE_ATOM_SCORES [kJ/mol]>
# Atom-ID; Total; Rec-Desolv; Rec-IA; Lig-Desolv; Lig-IA
1;-0.8700;-0.3728;0.0000;-0.4972;0.0000
2;-0.1045;0.0000;0.0000;-0.1045;0.0000
3;-1.0574;-0.4087;0.0000;-0.6487;0.0000
4;-0.1165;-0.0107;0.0000;-0.1058;0.0000
5;-0.6438;-0.0047;0.0000;-0.6392;0.0000
6;-0.1499;0.0000;0.0000;-0.1499;0.0000
7;0.0000;0.0000;0.0000;0.0000;0.0000
8;0.0000;0.0000;0.0000;0.0000;0.0000
9;0.0000;0.0000;0.0000;0.0000;0.0000
10;-1.6597;7.0121;-7.9356;9.0555;-9.7917
11;0.0000;0.0000;0.0000;0.0000;0.0000
12;0.0000;0.0000;0.0000;0.0000;0.0000
13;-0.0199;0.0000;0.0000;-0.0199;0.0000
14;0.0000;0.0000;0.0000;0.0000;0.0000
15;-0.4866;0.0000;0.0000;-0.4866;0.0000
16;-0.0455;0.0000;0.0000;-0.0455;0.0000
17;-13.7278;6.2543;-19.9627;10.3622;-10.3815
18;0.0401;0.0000;0.0000;0.0401;0.0000
19;-0.2116;0.0000;0.0000;-0.2116;0.0000
20;-1.7198;-0.3834;0.0000;-1.3364;0.0000
21;-0.2198;0.0000;0.0000;-0.2198;0.0000
22;6.6619;6.5302;-3.3920;6.9157;-3.3920
23;-3.0278;6.9238;-8.4284;6.9052;-8.4284
24;-3.1723;6.5213;-8.2153;6.7371;-8.2153
25;-10.7275;10.9767;-19.9680;6.6795;-8.4158
26;-1.8163;-1.0469;0.0000;-0.7694;0.0000
27;0.0000;0.0000;0.0000;0.0000;0.0000
28;-0.2169;0.0000;0.0000;-0.2169;0.0000

> <BIOSOLVEIT.HYDE_ESTIMATED_AFFINITY_LOWER_BOUNDARY [nM]>
109.055859

> <BIOSOLVEIT.HYDE_ESTIMATED_AFFINITY_UPPER_BOUNDARY [nM]>
10835.344380

> <BIOSOLVEIT.HYDE_LIGAND_EFFICIENCY>
0.298188

> <BIOSOLVEIT.HYDE_LIGAND_LIPOPHILIC_EFFICIENCY>
5.519854

> <BIOSOLVEIT.INTER_CLASH range: 0=green, 1=yellow, 2=red>
0

> <BIOSOLVEIT.INTRA_CLASH range: 0=green, 1=yellow, 2=red>
0

> <BIOSOLVEIT.LOGP>
0.4439

> <BIOSOLVEIT.MOLECULAR_WEIGHT>
394.36

> <BIOSOLVEIT.MOLECULE_CHECKSUM>
LTM0LjA0MTI7MC4yOTgxODg=

> <BIOSOLVEIT.TORSION_QUALITY range: 0=green/not rotatable, 1=yellow, 2=red>
1

> <BIOSOLVEIT.TPSA>
154.06

> <cleaned_smiles (canonical SMILES)>
CC(C)(C(=O)Nc1cc(F)cc(F)c1)C(=O)NC(CCc1[nH][n][n][n]1)C(N)=O

> <BIOSOLVEIT.OPTIBRIUM.2C9 pKi>
4.34164

> <BIOSOLVEIT.OPTIBRIUM.2D6 affinity category>
low

> <BIOSOLVEIT.OPTIBRIUM.BBB category>
-

> <BIOSOLVEIT.OPTIBRIUM.BBB log([brain]:[blood])>
-0.944874

> <BIOSOLVEIT.OPTIBRIUM.hERG pIC50>
3.14757

> <BIOSOLVEIT.OPTIBRIUM.HIA category>
-

> <BIOSOLVEIT.OPTIBRIUM.logD>
0.80625

> <BIOSOLVEIT.OPTIBRIUM.logP>
0.80625

> <BIOSOLVEIT.OPTIBRIUM.logS @ pH7.4>
2.21744

> <BIOSOLVEIT.OPTIBRIUM.logS>
2.21744

> <BIOSOLVEIT.OPTIBRIUM.P-gp category>
yes

> <BIOSOLVEIT.OPTIBRIUM.PPB90 category>
low

$$$$
no name_1_002
phSeeSAR  05142510573D 1   1.00000     0.00000     0
SeeSAR 14.1.2 pham.congdat
 44 45  0  0  0  0            999 V2000
    4.3252   -1.6512   15.9847 Cl  0  0  0  0  0  0  0  0  0  0  0  0
    3.9221   -2.6516   17.4011 C   0  0  0  0  0  0  0  0  0  0  0  0
    2.8927   -3.5822   17.3094 C   0  0  0  0  0  0  0  0  0  0  0  0
    2.1572   -3.7406   16.0876 N   0  0  0  0  0  0  0  0  0  0  0  0
    2.5622   -4.3019   14.9601 C   0  0  0  0  0  0  0  0  0  0  0  0
    3.7026   -4.7685   14.8775 O   0  0  0  0  0  0  0  0  0  0  0  0
    1.6237   -4.3726   13.7666 C   0  0  0  0  0  0  0  0  0  0  0  0
    1.5852   -3.0652   13.0955 N   0  0  0  0  0  0  0  0  0  0  0  0
    1.9769   -2.9561   11.8365 C   0  0  0  0  0  0  0  0  0  0  0  0
    2.3749   -3.9525   11.2250 O   0  0  0  0  0  0  0  0  0  0  0  0
    1.9373   -1.6042   11.1426 C   0  0  0  0  0  0  0  0  0  0  0  0
    0.5503   -1.2813   10.7782 N   0  3  1  0  0  0  0  0  0  0  0  0
    0.5154   -0.7451    9.4098 C   0  0  0  0  0  0  0  0  0  0  0  0
   -0.1986    0.5976    9.4096 C   0  0  0  0  0  0  0  0  0  0  0  0
   -1.0272    1.0235    8.4576 O   0  0  0  0  0  0  0  0  0  0  0  0
   -1.4413    2.2356    8.8229 C   0  0  0  0  0  0  0  0  0  0  0  0
   -2.3195    3.0275    8.1036 O   0  0  0  0  0  0  0  0  0  0  0  0
   -0.8890    2.5642    9.9680 N   0  0  0  0  0  0  0  0  0  0  0  0
   -0.0966    1.5187   10.3403 N   0  0  0  0  0  0  0  0  0  0  0  0
   -0.2709   -2.4986   10.8484 C   0  0  0  0  0  0  0  0  0  0  0  0
    1.1116   -1.8791   13.8233 C   0  0  0  0  0  0  0  0  0  0  0  0
    2.5844   -4.3608   18.4204 C   0  0  0  0  0  0  0  0  0  0  0  0
    1.2684   -5.5553   18.3119 Cl  0  0  0  0  0  0  0  0  0  0  0  0
    3.2888   -4.2178   19.6118 C   0  0  0  0  0  0  0  0  0  0  0  0
    4.3160   -3.2830   19.6926 C   0  0  0  0  0  0  0  0  0  0  0  0
    4.6326   -2.5006   18.5873 C   0  0  0  0  0  0  0  0  0  0  0  0
    1.2234   -3.3828   16.0884 H   0  0  0  0  0  0  0  0  0  0  0  0
    0.6406   -4.6310   14.1006 H   0  0  0  0  0  0  0  0  0  0  0  0
    1.9742   -5.1154   13.0808 H   0  0  0  0  0  0  0  0  0  0  0  0
    2.5394   -1.6391   10.2588 H   0  0  0  0  0  0  0  0  0  0  0  0
    2.3166   -0.8529   11.8033 H   0  0  0  0  0  0  0  0  0  0  0  0
   -0.0076   -1.4272    8.7727 H   0  0  0  0  0  0  0  0  0  0  0  0
    1.5154   -0.6174    9.0512 H   0  0  0  0  0  0  0  0  0  0  0  0
   -2.0642    3.3599    7.1957 H   0  0  0  0  0  0  0  0  0  0  0  0
   -1.2805   -2.2635   10.5831 H   0  0  0  0  0  0  0  0  0  0  0  0
    0.1156   -3.2291   10.1689 H   0  0  0  0  0  0  0  0  0  0  0  0
   -0.2454   -2.8890   11.8443 H   0  0  0  0  0  0  0  0  0  0  0  0
    1.1538   -1.0252   13.1797 H   0  0  0  0  0  0  0  0  0  0  0  0
    0.1023   -2.0358   14.1421 H   0  0  0  0  0  0  0  0  0  0  0  0
    1.7338   -1.7128   14.6777 H   0  0  0  0  0  0  0  0  0  0  0  0
    3.0423   -4.8224   20.4596 H   0  0  0  0  0  0  0  0  0  0  0  0
    4.8624   -3.1661   20.6051 H   0  0  0  0  0  0  0  0  0  0  0  0
    5.4230   -1.7821   18.6494 H   0  0  0  0  0  0  0  0  0  0  0  0
    0.1891   -0.5983   11.4131 H   0  0  0  0  0  0  0  0  0  0  0  0
  1  2  1  0  0  0  0
  2  3  2  0  0  0  0
  2 26  1  0  0  0  0
  3  4  1  0  0  0  0
  3 22  1  0  0  0  0
  4  5  1  0  0  0  0
  5  6  2  0  0  0  0
  5  7  1  0  0  0  0
  7  8  1  0  0  0  0
  8  9  1  0  0  0  0
  8 21  1  0  0  0  0
  9 10  2  0  0  0  0
  9 11  1  0  0  0  0
 11 12  1  0  0  0  0
 12 13  1  0  0  0  0
 12 20  1  0  0  0  0
 13 14  1  0  0  0  0
 14 15  1  0  0  0  0
 14 19  2  0  0  0  0
 15 16  1  0  0  0  0
 16 17  1  0  0  0  0
 16 18  2  0  0  0  0
 18 19  1  0  0  0  0
 22 23  1  0  0  0  0
 22 24  2  0  0  0  0
 24 25  1  0  0  0  0
 25 26  2  0  0  0  0
  4 27  1  0  0  0  0
  7 28  1  0  0  0  0
  7 29  1  0  0  0  0
 11 30  1  0  0  0  0
 11 31  1  0  0  0  0
 13 32  1  0  0  0  0
 13 33  1  0  0  0  0
 17 34  1  0  0  0  0
 20 35  1  0  0  0  0
 20 36  1  0  0  0  0
 20 37  1  0  0  0  0
 21 38  1  0  0  0  0
 21 39  1  0  0  0  0
 21 40  1  0  0  0  0
 24 41  1  0  0  0  0
 25 42  1  0  0  0  0
 26 43  1  0  0  0  0
 12 44  1  0  0  0  0
M  CHG  1  12   1
M  END
> <BIOSOLVEIT.HYDE_ATOM_SCORES [kJ/mol]>
# Atom-ID; Total; Rec-Desolv; Rec-IA; Lig-Desolv; Lig-IA
1;-0.1873;0.0000;0.0000;-0.1873;0.0000
2;-0.2963;0.0000;0.0000;-0.2963;0.0000
3;-0.0852;0.0000;0.0000;-0.0852;0.0000
4;0.0000;0.0000;0.0000;0.0000;0.0000
5;-0.2557;0.0000;0.0000;-0.2557;0.0000
6;-4.5477;5.2723;-8.2799;8.6764;-10.2165
7;-0.8227;0.0000;0.0000;-0.8227;0.0000
8;0.0000;0.0000;0.0000;0.0000;0.0000
9;0.0000;0.0000;0.0000;0.0000;0.0000
10;-0.6081;5.9830;-6.9046;8.8330;-8.5195
11;0.0000;0.0000;0.0000;0.0000;0.0000
12;0.0000;0.0000;0.0000;0.0000;0.0000
13;-0.4411;0.0000;0.0000;-0.4411;0.0000
14;0.0000;0.0000;0.0000;0.0000;0.0000
15;-7.2093;11.3492;-17.8977;2.8918;-3.5526
16;0.0000;0.0000;0.0000;0.0000;0.0000
17;-5.1743;13.3444;-16.7828;4.3022;-6.0380
18;-4.4099;14.7202;-17.5592;6.8579;-8.4287
19;-0.0368;0.0000;0.0000;-0.0368;0.0000
20;-2.3127;-1.1095;0.0000;-1.2032;0.0000
21;0.0000;0.0000;0.0000;0.0000;0.0000
22;-0.2321;0.0000;0.0000;-0.2321;0.0000
23;-2.9849;-1.5914;0.0000;-1.3935;0.0000
24;-1.1305;-0.4178;0.0000;-0.7127;0.0000
25;-1.4154;-0.8463;0.0000;-0.5690;0.0000
26;-0.4889;-0.0078;0.0000;-0.4811;0.0000

> <BIOSOLVEIT.HYDE_ESTIMATED_AFFINITY_LOWER_BOUNDARY [nM]>
178.587499

> <BIOSOLVEIT.HYDE_ESTIMATED_AFFINITY_UPPER_BOUNDARY [nM]>
17743.723953

> <BIOSOLVEIT.HYDE_LIGAND_EFFICIENCY>
0.309591

> <BIOSOLVEIT.HYDE_LIGAND_LIPOPHILIC_EFFICIENCY>
5.555752

> <BIOSOLVEIT.INTER_CLASH range: 0=green, 1=yellow, 2=red>
0

> <BIOSOLVEIT.INTRA_CLASH range: 0=green, 1=yellow, 2=red>
0

> <BIOSOLVEIT.LOGP>
0.1938

> <BIOSOLVEIT.MOLECULAR_WEIGHT>
403.244

> <BIOSOLVEIT.MOLECULE_CHECKSUM>
LTMyLjgxODU7MC4zMDk1OTE=

> <BIOSOLVEIT.TORSION_QUALITY range: 0=green/not rotatable, 1=yellow, 2=red>
1

> <BIOSOLVEIT.TPSA>
113

> <cleaned_smiles (canonical SMILES)>
CN(CC(=O)N(C)CC(=O)Nc1c(Cl)cccc1Cl)Cc1[n][n]c(O)o1

> <BIOSOLVEIT.OPTIBRIUM.2C9 pKi>
4.59782

> <BIOSOLVEIT.OPTIBRIUM.2D6 affinity category>
low

> <BIOSOLVEIT.OPTIBRIUM.BBB category>
-

> <BIOSOLVEIT.OPTIBRIUM.BBB log([brain]:[blood])>
-1.23707

> <BIOSOLVEIT.OPTIBRIUM.hERG pIC50>
4.38267

> <BIOSOLVEIT.OPTIBRIUM.HIA category>
-

> <BIOSOLVEIT.OPTIBRIUM.logD>
0.289461

> <BIOSOLVEIT.OPTIBRIUM.logP>
0.498278

> <BIOSOLVEIT.OPTIBRIUM.logS @ pH7.4>
4.35779

> <BIOSOLVEIT.OPTIBRIUM.logS>
4.06011

> <BIOSOLVEIT.OPTIBRIUM.P-gp category>
yes

> <BIOSOLVEIT.OPTIBRIUM.PPB90 category>
low

$$$$
no name_1_007
phSeeSAR  05142510573D 1   1.00000     0.00000     0
SeeSAR 14.1.2 pham.congdat
 60 61  0  0  0  0            999 V2000
   -3.0006    0.9969    9.7620 S   0  0  0  0  0  0  0  0  0  0  0  0
   -4.3041    1.4438   10.1803 O   0  0  0  0  0  0  0  0  0  0  0  0
   -3.0910    0.4177    8.4467 O   0  0  0  0  0  0  0  0  0  0  0  0
   -1.9765    2.2647    9.7282 N   0  5  0  0  0  0  0  0  0  0  0  0
   -0.8496    2.2742    8.7843 C   0  0  0  0  0  0  0  0  0  0  0  0
    0.4528    2.1012    9.5486 C   0  0  0  0  0  0  0  0  0  0  0  0
    0.6215    0.6878    9.9158 N   0  3  0  0  0  0  0  0  0  0  0  0
    1.8998    0.2442    9.3355 C   0  0  0  0  0  0  0  0  0  0  0  0
    2.2248   -1.1973    9.6988 C   0  0  0  0  0  0  0  0  0  0  0  0
    1.9814   -1.4658   11.1250 N   0  0  0  0  0  0  0  0  0  0  0  0
    2.7783   -2.3734   11.7702 C   0  0  0  0  0  0  0  0  0  0  0  0
    3.6814   -2.9491   11.1552 O   0  0  0  0  0  0  0  0  0  0  0  0
    2.5740   -2.6427   13.0977 N   0  0  0  0  0  0  0  0  0  0  0  0
    3.4296   -3.6169   13.7903 C   0  0  0  0  0  0  0  0  0  0  0  0
    3.4396   -3.3139   15.2798 C   0  0  2  0  0  0  0  0  0  0  0  0
    2.2778   -4.0284   15.9499 C   0  0  0  0  0  0  0  0  0  0  0  0
    2.3589   -4.3479   17.3009 C   0  0  0  0  0  0  0  0  0  0  0  0
    1.2922   -5.0023   17.9080 C   0  0  0  0  0  0  0  0  0  0  0  0
    0.1589   -5.3329   17.1737 C   0  0  0  0  0  0  0  0  0  0  0  0
    0.0868   -5.0096   15.8223 C   0  0  0  0  0  0  0  0  0  0  0  0
    1.1483   -4.3552   15.2064 C   0  0  0  0  0  0  0  0  0  0  0  0
    3.3033   -1.8150   15.4927 C   0  0  0  0  0  0  0  0  0  0  0  0
    2.2292   -1.2529   15.2568 O   0  0  0  0  0  0  0  0  0  0  0  0
    4.3353   -1.1126   15.9308 N   0  0  0  0  0  0  0  0  0  0  0  0
    5.6137   -1.7819   16.2116 C   0  0  0  0  0  0  0  0  0  0  0  0
    4.2037    0.3368   16.1369 C   0  0  0  0  0  0  0  0  0  0  0  0
    0.9235   -0.7871   11.8905 C   0  0  0  0  0  0  0  0  0  0  0  0
    0.6861    0.6282   11.3857 C   0  0  0  0  0  0  0  0  0  0  0  0
   -2.3858   -0.2445   10.9269 C   0  0  0  0  0  0  0  0  0  0  0  0
   -0.8332    3.2055    8.2579 H   0  0  0  0  0  0  0  0  0  0  0  0
   -0.9626    1.4716    8.0859 H   0  0  0  0  0  0  0  0  0  0  0  0
    0.4282    2.6996   10.4352 H   0  0  0  0  0  0  0  0  0  0  0  0
    1.2715    2.4098    8.9325 H   0  0  0  0  0  0  0  0  0  0  0  0
    2.6820    0.8766    9.7002 H   0  0  0  0  0  0  0  0  0  0  0  0
    1.8420    0.3267    8.2703 H   0  0  0  0  0  0  0  0  0  0  0  0
    3.2553   -1.3862    9.4811 H   0  0  0  0  0  0  0  0  0  0  0  0
    1.6112   -1.8496    9.1132 H   0  0  0  0  0  0  0  0  0  0  0  0
    1.8428   -2.1764   13.5957 H   0  0  0  0  0  0  0  0  0  0  0  0
    4.4264   -3.5525   13.4065 H   0  0  0  0  0  0  0  0  0  0  0  0
    3.0486   -4.6038   13.6296 H   0  0  0  0  0  0  0  0  0  0  0  0
    4.3605   -3.6525   15.7066 H   0  0  0  0  0  0  0  0  0  0  0  0
    3.2310   -4.0935   17.8663 H   0  0  0  0  0  0  0  0  0  0  0  0
    1.3442   -5.2529   18.9469 H   0  0  0  0  0  0  0  0  0  0  0  0
   -0.6579   -5.8360   17.6477 H   0  0  0  0  0  0  0  0  0  0  0  0
   -0.7852   -5.2644   15.2570 H   0  0  0  0  0  0  0  0  0  0  0  0
    1.0966   -4.1046   14.1674 H   0  0  0  0  0  0  0  0  0  0  0  0
    6.3261   -1.0608   16.5543 H   0  0  0  0  0  0  0  0  0  0  0  0
    5.4683   -2.5263   16.9664 H   0  0  0  0  0  0  0  0  0  0  0  0
    5.9772   -2.2458   15.3185 H   0  0  0  0  0  0  0  0  0  0  0  0
    5.1327    0.7325   16.4911 H   0  0  0  0  0  0  0  0  0  0  0  0
    3.9457    0.8068   15.2109 H   0  0  0  0  0  0  0  0  0  0  0  0
    3.4370    0.5263   16.8588 H   0  0  0  0  0  0  0  0  0  0  0  0
    1.2126   -0.7445   12.9197 H   0  0  0  0  0  0  0  0  0  0  0  0
    0.0154   -1.3455   11.7979 H   0  0  0  0  0  0  0  0  0  0  0  0
   -0.2388    0.9870   11.7867 H   0  0  0  0  0  0  0  0  0  0  0  0
    1.4868    1.2533   11.7217 H   0  0  0  0  0  0  0  0  0  0  0  0
   -1.4173   -0.5766   10.6161 H   0  0  0  0  0  0  0  0  0  0  0  0
   -2.3186    0.1860   11.9043 H   0  0  0  0  0  0  0  0  0  0  0  0
   -3.0580   -1.0767   10.9491 H   0  0  0  0  0  0  0  0  0  0  0  0
   -0.1375    0.1365    9.5696 H   0  0  0  0  0  0  0  0  0  0  0  0
  1  2  2  0  0  0  0
  1  3  2  0  0  0  0
  1  4  1  0  0  0  0
  1 29  1  0  0  0  0
  4  5  1  0  0  0  0
  5  6  1  0  0  0  0
  6  7  1  0  0  0  0
  7  8  1  0  0  0  0
  7 28  1  0  0  0  0
  8  9  1  0  0  0  0
  9 10  1  0  0  0  0
 10 11  1  0  0  0  0
 10 27  1  0  0  0  0
 11 12  2  0  0  0  0
 11 13  1  0  0  0  0
 13 14  1  0  0  0  0
 14 15  1  0  0  0  0
 15 16  1  0  0  0  0
 15 22  1  0  0  0  0
 16 17  2  0  0  0  0
 16 21  1  0  0  0  0
 17 18  1  0  0  0  0
 18 19  2  0  0  0  0
 19 20  1  0  0  0  0
 20 21  2  0  0  0  0
 22 23  2  0  0  0  0
 22 24  1  0  0  0  0
 24 25  1  0  0  0  0
 24 26  1  0  0  0  0
 27 28  1  0  0  0  0
  7 60  1  0  0  0  0
  5 30  1  0  0  0  0
  5 31  1  0  0  0  0
  6 32  1  0  0  0  0
  6 33  1  0  0  0  0
  8 34  1  0  0  0  0
  8 35  1  0  0  0  0
  9 36  1  0  0  0  0
  9 37  1  0  0  0  0
 13 38  1  0  0  0  0
 14 39  1  0  0  0  0
 14 40  1  0  0  0  0
 15 41  1  0  0  0  0
 17 42  1  0  0  0  0
 18 43  1  0  0  0  0
 19 44  1  0  0  0  0
 20 45  1  0  0  0  0
 21 46  1  0  0  0  0
 25 47  1  0  0  0  0
 25 48  1  0  0  0  0
 25 49  1  0  0  0  0
 26 50  1  0  0  0  0
 26 51  1  0  0  0  0
 26 52  1  0  0  0  0
 27 53  1  0  0  0  0
 27 54  1  0  0  0  0
 28 55  1  0  0  0  0
 28 56  1  0  0  0  0
 29 57  1  0  0  0  0
 29 58  1  0  0  0  0
 29 59  1  0  0  0  0
M  CHG  2   4  -1   7   1
M  END
> <BIOSOLVEIT.HYDE_ATOM_SCORES [kJ/mol]>
# Atom-ID; Total; Rec-Desolv; Rec-IA; Lig-Desolv; Lig-IA
1;-0.1097;0.0000;0.0000;-0.1097;0.0000
2;-6.5977;24.3751;-28.6713;2.8407;-5.1422
3;-9.1485;7.9515;-16.8659;3.1136;-3.3478
4;-0.7776;5.7693;-7.7595;12.4351;-11.2225
5;-1.4524;-0.4756;0.0000;-0.9768;0.0000
6;-0.3065;0.0000;0.0000;-0.3065;0.0000
7;0.0000;0.0000;0.0000;0.0000;0.0000
8;0.0000;0.0000;0.0000;0.0000;0.0000
9;-0.2362;0.0000;0.0000;-0.2362;0.0000
10;0.0000;0.0000;0.0000;0.0000;0.0000
11;0.0000;0.0000;0.0000;0.0000;0.0000
12;-1.4671;6.7118;-8.3705;10.5199;-10.3283
13;0.0000;0.0000;0.0000;0.0000;0.0000
14;-0.5502;0.0000;0.0000;-0.5502;0.0000
15;-0.3511;0.0000;0.0000;-0.3511;0.0000
16;-0.1169;0.0000;0.0000;-0.1169;0.0000
17;-1.4755;-0.7140;0.0000;-0.7616;0.0000
18;-1.2265;-0.7434;0.0000;-0.4832;0.0000
19;-1.3608;-0.7010;0.0000;-0.6598;0.0000
20;-1.2622;-0.7338;0.0000;-0.5284;0.0000
21;-0.4113;-0.0527;0.0000;-0.3586;0.0000
22;0.0000;0.0000;0.0000;0.0000;0.0000
23;0.0000;0.0000;0.0000;0.0000;0.0000
24;0.0000;0.0000;0.0000;0.0000;0.0000
25;-1.0958;-0.1376;0.0000;-0.9582;0.0000
26;0.0000;0.0000;0.0000;0.0000;0.0000
27;0.0000;0.0000;0.0000;0.0000;0.0000
28;-0.4060;0.0000;0.0000;-0.4060;0.0000
29;-2.1778;0.0010;0.0000;-2.1788;0.0000

> <BIOSOLVEIT.HYDE_ESTIMATED_AFFINITY_LOWER_BOUNDARY [nM]>
322.242914

> <BIOSOLVEIT.HYDE_ESTIMATED_AFFINITY_UPPER_BOUNDARY [nM]>
32016.738716

> <BIOSOLVEIT.HYDE_LIGAND_EFFICIENCY>
0.265190

> <BIOSOLVEIT.HYDE_LIGAND_LIPOPHILIC_EFFICIENCY>
5.740820

> <BIOSOLVEIT.INTER_CLASH range: 0=green, 1=yellow, 2=red>
0

> <BIOSOLVEIT.INTRA_CLASH range: 0=green, 1=yellow, 2=red>
0

> <BIOSOLVEIT.LOGP>
-0.2476

> <BIOSOLVEIT.MOLECULAR_WEIGHT>
425.55

> <BIOSOLVEIT.MOLECULE_CHECKSUM>
LTMxLjM1NTM7MC4yNjUxOQ==

> <BIOSOLVEIT.TORSION_QUALITY range: 0=green/not rotatable, 1=yellow, 2=red>
1

> <BIOSOLVEIT.TPSA>
105.33

> <cleaned_smiles (canonical SMILES)>
CN(C)C(=O)C(CNC(=O)N1CCN(CCNS(C)(=O)=O)CC1)c1ccccc1

> <BIOSOLVEIT.OPTIBRIUM.2C9 pKi>
4.32692

> <BIOSOLVEIT.OPTIBRIUM.2D6 affinity category>
low

> <BIOSOLVEIT.OPTIBRIUM.BBB category>
-

> <BIOSOLVEIT.OPTIBRIUM.BBB log([brain]:[blood])>
-0.896908

> <BIOSOLVEIT.OPTIBRIUM.hERG pIC50>
5.26903

> <BIOSOLVEIT.OPTIBRIUM.HIA category>
-

> <BIOSOLVEIT.OPTIBRIUM.logD>
-0.134157

> <BIOSOLVEIT.OPTIBRIUM.logP>
0.157755

> <BIOSOLVEIT.OPTIBRIUM.logS @ pH7.4>
3.40967

> <BIOSOLVEIT.OPTIBRIUM.logS>
4.88969

> <BIOSOLVEIT.OPTIBRIUM.P-gp category>
yes

> <BIOSOLVEIT.OPTIBRIUM.PPB90 category>
low

$$$$
